BEGIN options
END options

BEGIN timing
  TDIS6  sv.tdis
END timing

BEGIN models
  gwf6  sv.nam  sv
END models

BEGIN exchanges
END exchanges

BEGIN solutiongroup  1
  ims6  sv.ims  sv
END solutiongroup  1

