BEGIN options
END options

BEGIN dimensions
  MAXBOUND  124
END dimensions

BEGIN period  1
  1 40 1 1.13125000E-01 2.14200800E+03
  1 40 2 1.13125000E-01 1.90445600E+03
  1 40 3 1.13125000E-01 1.97323700E+03
  1 40 4 1.13125000E-01 2.33360500E+03
  1 40 5 1.13125000E-01 2.64630100E+03
  1 40 6 1.13125000E-01 2.62387900E+03
  1 40 7 1.13125000E-01 2.50106300E+03
  1 40 8 1.13125000E-01 2.44672500E+03
  1 40 10 1.13125000E-01 2.32199000E+03
  1 40 11 1.13125000E-01 2.04242200E+03
  1 40 12 1.13125000E-01 2.04030100E+03
  1 40 13 1.13125000E-01 1.97455000E+03
  1 40 14 1.13125000E-01 1.94596700E+03
  1 40 15 1.13125000E-01 1.87597400E+03
  1 40 16 1.13125000E-01 1.59337600E+03
  1 40 17 1.13125000E-01 1.43622000E+03
  1 40 18 1.13125000E-01 1.66437900E+03
  1 40 19 1.13125000E-01 2.25916800E+03
  1 40 20 1.13125000E-01 2.52035400E+03
  1 40 21 1.13125000E-01 2.85617900E+03
  1 40 22 1.13125000E-01 2.58984200E+03
  1 40 23 1.13125000E-01 2.49005400E+03
  1 40 24 1.13125000E-01 2.44349300E+03
  1 40 25 1.13125000E-01 2.31017300E+03
  2 40 1 3.01250000E-01 4.24160000E+03
  2 40 2 3.01250000E-01 3.77120000E+03
  2 40 3 3.01250000E-01 3.90740000E+03
  2 40 4 3.01250000E-01 4.62100000E+03
  2 40 5 3.01250000E-01 5.24020000E+03
  2 40 6 3.01250000E-01 5.19580000E+03
  2 40 7 3.01250000E-01 4.95260000E+03
  2 40 8 3.01250000E-01 4.84500000E+03
  2 40 9 3.01250000E-01 4.52460000E+03
  2 40 10 3.01250000E-01 4.59800000E+03
  2 40 11 3.01250000E-01 4.04440000E+03
  2 40 12 3.01250000E-01 4.04020000E+03
  2 40 13 3.01250000E-01 3.91000000E+03
  2 40 14 3.01250000E-01 3.85340000E+03
  2 40 15 3.01250000E-01 3.71480000E+03
  2 40 16 3.01250000E-01 3.15520000E+03
  2 40 17 3.01250000E-01 2.84400000E+03
  2 40 18 3.01250000E-01 3.29580000E+03
  2 40 19 3.01250000E-01 4.47360000E+03
  2 40 20 3.01250000E-01 4.99080000E+03
  2 40 21 3.01250000E-01 5.65580000E+03
  2 40 22 3.01250000E-01 5.12840000E+03
  2 40 23 3.01250000E-01 4.93080000E+03
  2 40 24 3.01250000E-01 4.83860000E+03
  2 40 25 3.01250000E-01 4.57460000E+03
  3 40 1 8.64875000E-01 5.95350976E+03
  3 40 2 8.65750000E-01 5.30381568E+03
  3 40 3 8.67250000E-01 5.51412288E+03
  3 40 4 8.68875000E-01 6.54518440E+03
  3 40 5 8.70250000E-01 7.44527616E+03
  3 40 6 8.70625000E-01 7.38842760E+03
  3 40 7 8.70125000E-01 7.03467304E+03
  3 40 8 8.69375000E-01 6.87021000E+03
  3 40 9 8.69000000E-01 6.41045328E+03
  3 40 10 8.68500000E-01 6.50708960E+03
  3 40 11 8.67875000E-01 5.71554608E+03
  3 40 12 8.67750000E-01 5.70799456E+03
  3 40 13 8.67750000E-01 5.52404800E+03
  3 40 14 8.67875000E-01 5.44562488E+03
  3 40 15 8.68625000E-01 5.25867088E+03
  3 40 16 8.69500000E-01 4.47533568E+03
  3 40 17 8.70750000E-01 4.04530560E+03
  3 40 18 8.71250000E-01 4.69321920E+03
  3 40 19 8.71375000E-01 6.37219584E+03
  3 40 20 8.71500000E-01 7.11089184E+03
  3 40 21 8.71750000E-01 8.06290848E+03
  3 40 22 8.71500000E-01 7.30694432E+03
  3 40 23 8.71750000E-01 7.02934848E+03
  3 40 24 8.72500000E-01 6.90952080E+03
  3 40 25 8.72750000E-01 6.53618848E+03
  4 40 1 2.85012500E+00 5.24813168E+04
  4 40 2 2.82950000E+00 4.59860128E+04
  4 40 3 2.78337500E+00 4.61112274E+04
  4 40 4 2.76962500E+00 5.39039650E+04
  4 40 5 2.75400000E+00 6.03566236E+04
  4 40 6 2.68887500E+00 5.71070378E+04
  4 40 7 2.59675000E+00 5.08235812E+04
  4 40 8 2.56850000E+00 4.86825600E+04
  4 40 9 2.51612500E+00 4.35945210E+04
  4 40 10 2.50450000E+00 4.39109000E+04
  4 40 11 2.49787500E+00 3.84501108E+04
  4 40 12 2.48975000E+00 3.81556488E+04
  4 40 13 2.49412500E+00 3.70628900E+04
  4 40 14 2.43537500E+00 3.47075738E+04
  4 40 15 2.38862500E+00 3.20252908E+04
  4 40 16 2.30875000E+00 2.51406336E+04
  4 40 17 2.27875000E+00 2.19215520E+04
  4 40 18 2.22425000E+00 2.39406912E+04
  4 40 19 2.20850000E+00 3.19236096E+04
  4 40 20 2.19825000E+00 3.51951216E+04
  4 40 21 2.16650000E+00 3.84255052E+04
  4 40 22 2.09987500E+00 3.21294260E+04
  4 40 23 2.05925000E+00 2.92692288E+04
  4 40 24 2.06987500E+00 2.90751474E+04
  4 40 25 1.94562500E+00 2.29233206E+04
  5 40 1 5.94325000E+00 5.24770752E+04
  5 40 2 5.87800000E+00 4.59860128E+04
  5 40 3 5.73362500E+00 4.61112274E+04
  5 40 4 5.68575000E+00 5.38993440E+04
  5 40 5 5.63350000E+00 6.03566236E+04
  5 40 6 5.43675000E+00 5.71122336E+04
  5 40 7 5.16237500E+00 5.08285338E+04
  5 40 8 5.08037500E+00 4.86777150E+04
  5 40 9 4.92487500E+00 4.35945210E+04
  5 40 10 4.89200000E+00 4.39109000E+04
  5 40 11 4.87475000E+00 3.84541552E+04
  5 40 12 4.85075000E+00 3.81556488E+04
  5 40 13 4.86387500E+00 3.70628900E+04
  5 40 14 4.68700000E+00 3.47037204E+04
  5 40 15 4.54375000E+00 3.20215760E+04
  5 40 16 4.30075000E+00 2.51406336E+04
  5 40 17 4.20575000E+00 2.19215520E+04
  5 40 18 4.04025000E+00 2.39406912E+04
  5 40 19 3.99262500E+00 3.19280832E+04
  5 40 20 3.96125000E+00 3.51951216E+04
  5 40 21 3.86500000E+00 3.84255052E+04
  5 40 22 3.66612500E+00 3.21294260E+04
  5 40 23 3.54325000E+00 2.92692288E+04
  5 40 24 3.57212500E+00 2.90751474E+04
  5 40 25 3.19837500E+00 2.29233206E+04
END period  1

