BEGIN options
END options

BEGIN griddata
  strt  LAYERED
    INTERNAL  FACTOR  1.0
          12.84005259      12.85382583      12.87546174      12.89669599      12.91217032      12.92205577      12.92610238      12.92519683      12.92211776      12.92090797      12.90701952      12.83749250      12.62225214      12.68497307      12.75275798      12.81775156      12.88291781      12.94721806      13.01349118      13.07708867      13.13451568      13.18941394      13.25301159      13.31598807      13.35707135
          12.84981987      12.86838224      12.89683923      12.92374857      12.94335834      12.95375019      12.95236141      12.94467804      12.93863806      12.94204447      12.94470586      12.93054947      12.89284724      12.92429919      12.97214208      13.02272241      13.07351622      13.11577535      13.13901377      13.07526639      13.13036378      13.18567469      13.24493044      13.30698396      13.34840620
          12.86840079      12.89777012      12.94485590      12.98831068      13.01625047      13.02496568      13.01011700      12.98493885      12.96657346      12.96635840      12.98159759      13.00054974      13.01829141      13.05253767      13.09518343      13.14150488      13.18740227      13.22796349      13.26113179      13.27253245      13.30786405      13.35137626      13.38970757      13.40322625      13.32229500
          12.89596167      12.94346687      13.03354244      13.87327652      13.87327652      13.87327652      13.87327652      13.04432334      13.00064727      12.98836109      13.00982506      13.04272843      13.07980211      13.12205901      13.16536236      13.21294294      13.26016222      13.30537254      13.34448744      13.37596275      13.40935634      13.43331245      13.43605283      13.39911347      13.27476743
          12.92030822      12.98297643      13.87327652      13.87327652      13.87327652      13.87327652      13.87327652      13.08727838      13.02776424      13.00591588      13.02403957      13.06311576      13.10696656      13.15414601      13.20417608      13.25308693      13.30264032      13.34929417      13.38858499      13.42125064      13.44689765      13.45233783      13.42053048      13.33891977      13.22903437
          12.92136823      12.99681790      13.87327652      13.87327652      13.87327652      13.87327652      13.87327652      13.10920613      13.04225536      13.01304962      13.02514509      13.06186240      13.10793775      13.15999952      13.21468413      13.26537159      13.31203340      13.35506531      13.39355221      13.42465188      13.44195727      13.42974197      13.35751907      13.17247656      13.17953269
          12.88163367      12.96542423      13.87327652      13.87327652      13.87327652      13.87327652      13.87327652      13.11728631      13.04417963      13.00870323      13.01243440      13.04456546      13.08867215      13.13937686      13.19573047      13.24583912      13.28837352      13.32505194      13.36048128      13.38666438      13.39361105      13.36998300      13.28826357      13.11303446      13.12231514
          12.80297795      12.88978312      13.87327652      13.87327652      13.87327652      13.87327652      13.87327652      13.12247137      13.03888579      12.99183650      12.98537125      13.01213801      13.05235707      13.09772943      13.14805395      13.19273742      13.23186689      13.26150513      13.28692806      13.30285677      13.29710345      13.27032366      13.19214415      13.03697404      13.04556701
          12.69986472      12.78521254      13.87327652      13.87327652      13.87327652      13.87327652      13.87327652      13.14237789      13.03033430      12.96751930      12.94790237      12.96462307      12.99718849      13.03749299      13.07986105      13.11602197      13.14420152      13.16283873      13.17754445      13.18090264      13.16585524      13.12859825      13.05048692      12.94406659      12.95474392
          12.56199827      12.64393891      13.87327652      13.87327652      13.87327652      13.87327652      13.87327652      13.87327652      13.01984578      12.93575008      12.89806117      12.90350995      12.92564031      12.95384804      12.98155454      13.00667115      13.01892200      13.01584530      13.02387968      13.02508373      13.00241918      12.93338031      12.81510116      12.83855084      12.85773354
          12.38591468      12.45194404      12.60256622      13.87327652      13.87327652      13.87327652      13.87327652      13.87327652      13.02603740      12.89133043      12.82815635      12.82212499      12.83342845      12.84322126      12.84898521      12.84868217      12.82676107      12.78316376      12.79440614      12.81290002      12.80124970      12.69837479      12.71657871      12.73476966      12.74890238
          12.17847138      12.24388563      12.38668046      13.87327652      13.87327652      13.87327652      13.87327652      13.87327652      13.87327652      12.80662456      12.73183067      12.71224857      12.70847676      12.69525649      12.66901452      12.64269335      12.56970915      12.42805905      12.47974722      12.53290392      12.57293885      12.60179788      12.62062435      12.63323290      12.63960455
          11.90607174      11.98919210      12.14010734      12.34133136      13.87327652      13.87327652      13.87327652      13.87327652      13.87327652      12.68888337      12.60078861      12.56233384      12.53374247      12.48187284      12.40282170      12.38118997      12.26821116      12.33005633      12.38640305      12.43698522      12.47470004      12.50315621      12.52454735      12.53772641      12.54443999
          11.48991760      11.64180126      11.83711799      12.05666346      13.87327652      13.87327652      13.87327652      13.87327652      13.87327652      12.50924390      12.39950219      12.34328181      12.29303039      12.19567091      11.96233032      12.04009111      12.13563939      12.21682339      12.27862450      12.33265806      12.37639843      12.40642976      12.42719470      12.44009302      12.44698714
          10.74847286      11.15036591      11.43420694      11.67174426      13.87327652      13.87327652      13.87327652      13.87327652      13.87327652      12.23347587      12.09711939      12.02157534      11.95795340      11.91761145      11.80929190      11.89480218      11.98764661      12.07674121      12.15064898      12.21564363      12.26745656      12.30361995      12.32554808      12.33756760      12.34365047
          10.45914851      10.48665601      10.88747949      11.08036677      11.22834470      13.87327652      13.87327652      13.87327652      13.87327652      11.80168824      11.66108938      11.52211912      11.31785691      11.47772934      11.62423217      11.74221594      11.84033091      11.92393536      12.00335142      12.07692570      12.13873554      12.18435228      12.21512093      12.23068994      12.23791377
          10.11062120      10.10920534      10.12004178      10.14164190      10.18991034      10.64410040      10.85597599      10.89048318      10.90735461      11.00194762      10.98357486      10.79993019      10.99210165      11.19385179      11.46865857      11.66800153      11.77466249      11.76025029      11.83961308      11.91359362      11.98241025      12.04136572      12.08133532      12.10459729      12.11390481
           9.68022178       9.66835923       9.65026944       9.66356696       9.68250118       9.68041230       9.65791815       9.66014117       9.74028702       9.90860344      10.14381525      10.39708735      10.65714057      10.87875437      11.08978632      11.45697233      11.62761939      11.67967510      11.64847439      11.72477382      11.79404735      11.86319664      11.91760550      11.95583258      11.97058557
           9.20048280       9.17553817       9.13324921       9.10982014       9.07410176       9.03123887       8.99467809       8.99665080       9.09481241       9.30173796       9.60983691       9.90120808      10.18639489      10.58626856      10.88216807      11.16701403      11.39746170      11.50262577      11.52762706      11.50488156      11.58861436      11.66514944      11.73401874      11.79032951      11.81945183
           8.72891124       8.67160387       8.61572865       8.55615145       8.47181445       8.37599147       8.28669175       8.21236928       8.30245303       8.57029305       8.93696019       9.31431410       9.59393611       9.90727307      10.22996492      10.51863584      11.05691071      11.23546177      11.29214163      11.31878020      11.36269042      11.46130270      11.54430407      11.61066945      11.65286651
           8.23072914       8.15381519       8.08504778       8.00317747       7.87280717       7.64721228       7.32952761       7.11704729       7.21776378       7.62090841       8.12732486       8.63718925       9.01106595       9.34926727       9.96845248      10.35725786      10.72228053      10.89182891      10.94710803      10.96035082      11.11007118      11.23952923      11.33816332      11.41149439      11.45990942
           7.65451885       7.58819236       7.48885258       7.33976283       7.10046823       6.65004479       5.97765473       5.35161638       5.57675671       6.31031346       7.10553751       7.78509267       8.30291945       8.95873193       9.51254612       9.90581733      10.24841007      10.42071370      10.47338277      10.67852782      10.84755012      10.98991167      11.08865648      11.15733616      11.19622392
           7.06938693       7.00866795       6.85822190       6.59468757       6.18933768       5.52251052       4.43255324       2.58115829       1.60652146       4.46831002       5.78426879       6.78629350       7.47078018       8.02352258       8.84230676       9.34684897       9.65476185       9.79996726      10.11633196      10.37003152      10.56051970      10.70076362      10.78900381      10.84055105      10.85761833
           6.56330975       6.47304156       6.26952970       5.92382442       5.43340506       4.77740641       3.86124756       2.76623803       1.37675155       3.33238006       4.59165034       5.75773477       6.61059315       7.29864854       7.94347439       8.74824857       8.97055001       9.36982991       9.72935479      10.00484568      10.21326500      10.35664158      10.43624625      10.47939799      10.49135441
           6.14316675       6.00656659       5.76256871       5.40205778       4.92868549       4.31573838       3.51454031       2.64754254       1.40671570       2.78711310       3.85351323       4.95945884       5.86431097       6.59234579       7.30209182       8.17355815       8.63651821       8.88303053       9.24207518       9.51381895       9.69508678       9.88152526      10.00747180      10.06686632      10.08785065
           5.76086811       5.59655732       5.35033232       5.01066231       4.56726028       3.98222631       3.23572459       2.45767652       1.38332346       2.50202663       3.41680428       4.36673578       5.20852916       5.95071533       6.66997351       7.31683620       7.84242168       8.28447736       8.62992030       8.90062235       9.07811793       9.27440623       9.47465195       9.57910710       9.61362656
           5.42991246       5.26249097       5.03452608       4.71010099       4.28072128       3.69299898       2.99448574       2.28534204       1.25850317       2.31791782       3.14952124       3.97688293       4.72878793       5.43367108       6.09429826       6.74704208       7.29371832       7.72449817       8.06346646       8.33065784       8.55172459       8.73816561       8.93054486       9.05341740       9.10603553
           5.10625064       4.96517303       4.75515230       4.44978420       4.03120063       3.44635167       2.76022074       2.08394323       1.10710166       2.14177071       2.93552736       3.70893094       4.38716517       5.03070672       5.65391216       6.24414600       6.79490764       7.22170858       7.58632006       7.88642322       8.09820558       8.28717331       8.45490489       8.57284674       8.63550433
           4.76541617       4.67372963       4.48338047       4.19235967       3.79574048       3.21456322       2.51388851       1.86991318       0.98053554       1.96969947       2.72162087       3.47131506       4.15063820       4.74738931       5.32755849       5.88584693       6.39638800       6.80420431       7.13166171       7.44647566       7.66781878       7.85490044       8.01902446       8.15040386       8.20234290
           4.47705193       4.41047222       4.23503584       3.93846452       3.54380433       2.98881252       2.31329943       1.68969908       0.85420620       1.83795111       2.54113638       3.23371262       3.91009920       4.52199827       5.07206148       5.61749000       6.11075117       6.49129676       6.78496492       7.05015214       7.26774850       7.42801080       7.58590978       7.72137385       7.79409320
           4.25312353       4.18867957       4.02055706       3.71132598       3.31057735       2.79446713       2.15545487       1.54580295       0.74053602       1.71843309       2.40010368       3.04565112       3.67408238       4.29737475       4.86001706       5.37374117       5.84184964       6.20028769       6.47487029       6.71094102       6.91006032       7.05964748       7.19274897       7.30445298       7.38905043
           4.06646519       3.99702407       3.83695512       3.53497634       3.12459845       2.62596286       2.01830661       1.42721909       0.63792743       1.58984799       2.25536211       2.87699294       3.50073827       4.09507959       4.64650518       5.14872735       5.56994385       5.89281866       6.14629039       6.37182653       6.55705116       6.70076730       6.81707001       6.91921093       6.98106465
           3.91350695       3.84237647       3.67020099       3.37286049       2.99881484       2.51526263       1.92028479       1.33467553       0.57516956       1.46504082       2.09500388       2.73012678       3.37769455       3.95662213       4.46685394       4.92167438       5.29772137       5.58452190       5.81388634       6.01917259       6.19506893       6.33152039       6.43499561       6.52256721       6.57361841
           3.81262822       3.73720115       3.56356945       3.28077019       2.91509242       2.44268929       1.87137071       1.29315730       0.51051938       1.36709593       1.94663619       2.58719020       3.26864889       3.85508672       4.33253115       4.73018919       5.05823805       5.30000763       5.49299451       5.66713872       5.82013319       5.94760074       6.03486277       6.10651111       6.15188533
           3.74052331       3.66335505       3.49189476       3.23162341       2.87761123       2.42562260       1.87766121       1.29411968       0.49060395       1.30490964       1.85318002       2.46291836       3.13692304       3.73509786       4.19511112       4.54740832       4.81868918       5.01283166       5.15492192       5.27810601       5.39664666       5.51742609       5.59852815       5.66391066       5.69286365
           3.70287261       3.62359664       3.45911739       3.21802636       2.89865338       2.48581414       1.95388157       1.34746893       0.43857622       1.31288407       1.85750243       2.40933391       2.99554837       3.57754040       4.04081337       4.35140733       4.57251476       4.71654695       4.80432893       4.87668582       4.95223860       5.04003075       5.12473346       5.18331776       5.20900967
           3.71138061       3.63230230       3.47011414       3.24482667       2.98022412       2.63334697       2.11950061       1.45390859       0.39067195       1.37493703       1.93867645       2.46772875       2.96201420       3.43275819       3.83200311       4.10678682       4.28933040       4.39942744       4.45347051       4.49003320       4.52609807       4.55027204       4.60246342       4.64495137       4.66537940
           3.76317289       3.69013806       3.54178875       3.34988496       3.12987388       2.83025330       2.37074008       1.67970421       0.40455900       1.55543151       2.14243478       2.62815103       3.00331349       3.32020311       3.58949645       3.80173908       3.94833456       4.02870586       4.05380288       4.05863734       4.05170245       4.04146390       4.03917792       4.04749412       4.05332754
           3.81810133       3.76069965       3.64363833       3.49555799       3.32946367       3.08999638       2.71374634       2.10286774       0.54639508       1.94731255       2.47501728       2.84202371       3.08241503       3.24217671       3.36664532       3.47102526       3.55120249       3.57900507       3.56152946       3.53641959       3.49328228       3.46957377       3.43549297       3.39249547       3.36705419
           3.58655078       3.55070783       3.48023444       3.40376395       3.31350623       3.17401872       2.95326304       2.58595856       1.06530371       2.46418080       2.76775423       2.91752795       2.99614089       3.01351817       3.00822980       2.98408769       2.96660249       2.92902426       2.88809613       2.85358087       2.80156518       2.74138534       2.68454616       2.63727963       2.55439782
    INTERNAL  FACTOR  1.0
          12.83999115      12.85376797      12.87540479      12.89664020      12.91210959      12.92199105      12.92604592      12.92515226      12.92206742      12.92084130      12.90693323      12.83735826      12.62024737      12.68368980      12.75155369      12.81665562      12.88186192      12.94628443      13.01265760      13.07661138      13.13409199      13.18890269      13.25223791      13.31510626      13.35606770
          12.84975415      12.86832517      12.89677959      12.92368793      12.94329463      12.95368640      12.95230475      12.94462566      12.93858672      12.94197844      12.94460590      12.93041255      12.89268995      12.92415118      12.97200411      13.02258304      13.07338383      13.11564535      13.13885633      13.07391413      13.12944234      13.18472519      13.24380780      13.30565870      13.34720337
          12.86831614      12.89769429      12.94478506      12.98849708      13.01646595      13.02518202      13.01027399      12.98487961      12.96651528      12.96628884      12.98150047      13.00041696      13.01814955      13.05239805      13.09505604      13.14137325      13.18727385      13.22783989      13.26098429      13.27235974      13.30767625      13.35116806      13.38946045      13.40289401      13.32059026
          12.89584218      12.94336204      13.03392804      13.29732774      13.36221823      13.35204364      13.27182923      13.04444786      13.00058127      12.98827785      13.00970512      13.04260518      13.07967333      13.12193247      13.16523520      13.21279522      13.26001251      13.30521012      13.34433249      13.37579030      13.40915593      13.43312521      13.43584491      13.39886931      13.27338781
          12.92020014      12.98315184      13.30926921      13.45423222      13.49969120      13.47467796      13.36681837      13.08745194      13.02768948      13.00583450      13.02391460      13.06299349      13.10684809      13.15401404      13.20402168      13.25292749      13.30245598      13.34911155      13.38840713      13.42108306      13.44671361      13.45213754      13.42033317      13.33869407      13.22803435
          12.92126762      12.99707148      13.37184383      13.51364449      13.55365081      13.52366293      13.40521700      13.10938343      13.04218407      13.01297024      13.02505182      13.06174871      13.10780713      13.15984868      13.21450427      13.26519380      13.31186409      13.35486971      13.39337291      13.42445122      13.44172647      13.42947487      13.35726192      13.17086616      13.17900391
          12.88151246      12.96568913      13.38758084      13.53592619      13.57425133      13.54287858      13.42284948      13.11745948      13.04410424      13.00863138      13.01235289      13.04445327      13.08853856      13.13920219      13.19553892      13.24565180      13.28819878      13.32486359      13.36025530      13.38640698      13.39332525      13.36969976      13.28798893      13.11176988      13.12179881
          12.80284864      12.89005086      13.36361768      13.53204709      13.57554182      13.54614166      13.43117527      13.12262379      13.03880050      12.99174965      12.98527463      13.01200927      13.05220625      13.09756403      13.14786730      13.19256210      13.23167872      13.26133291      13.28670934      13.30258488      13.29685139      13.27004187      13.19187901      13.03581738      13.04504035
          12.69975215      12.78549631      13.28155975      13.48646320      13.55303653      13.54128113      13.44244416      13.14266464      13.03023171      12.96743337      12.94781374      12.96449294      12.99703040      13.03732562      13.07968835      13.11586206      13.14402546      13.16265388      13.17734651      13.18069133      13.16566403      13.12834986      13.05020944      12.94306304      12.95427714
          12.56187495      12.64418710      13.11888083      13.39231421      13.50235794      13.52494445      13.46923444      13.31085093      13.01999115      12.93564978      12.89795406      12.90337154      12.92549287      12.95367202      12.98136973      13.00648426      13.01871991      13.01565628      13.02367207      13.02486941      13.00223844      12.93317366      12.81380885      12.83798160      12.85726673
          12.38575573      12.45178163      12.60338235      13.19094783      13.40099300      13.47938315      13.47230506      13.36331373      13.02632148      12.89121319      12.82802391      12.82195103      12.83326431      12.84304709      12.84881238      12.84848846      12.82652224      12.78295627      12.79419997      12.81270205      12.80105831      12.69711165      12.71608355      12.73427773      12.74840018
          12.17828965      12.24372183      12.38702751      12.94741058      13.26139040      13.41399268      13.46492700      13.42244270      13.22840740      12.80681940      12.73168841      12.71205667      12.70828853      12.69506456      12.66881451      12.64248553      12.56948026      12.42640313      12.47862697      12.53179928      12.57198979      12.60125629      12.62020181      12.63284882      12.63922137
          11.90586559      11.98898213      12.13988596      12.34228551      13.04592958      13.31690835      13.41600297      13.40731784      13.23884058      12.68916598      12.60061701      12.56211053      12.53350683      12.48162179      12.40259365      12.38095451      12.26639207      12.32944012      12.38578631      12.43636605      12.47423905      12.50274714      12.52417947      12.53738091      12.54411597
          11.48963797      11.64155740      11.83684227      12.05706631      12.80882573      13.16129014      13.31644624      13.32578583      13.15318678      12.50958907      12.39921131      12.34296647      12.29272006      12.19539841      11.96005046      12.03868475      12.13469171      12.21615828      12.27802561      12.33213438      12.37597133      12.40608200      12.42685344      12.43977283      12.44666182
          10.74525891      11.15002753      11.43387778      11.67207272      12.37725294      12.86254109      13.08957870      13.11781502      12.94212978      12.23377905      12.09676896      12.02119209      11.95753434      11.91726895      11.80814441      11.89411511      11.98690394      12.07606942      12.15003334      12.21509703      12.26699644      12.30323003      12.32524277      12.33727557      12.34335981
          10.45789664      10.48345869      10.88705053      11.07994965      11.22963622      12.19982074      12.54612965      12.57608184      12.44262016      11.80185103      11.66066521      11.52161953      11.31422389      11.47593407      11.62317732      11.74112201      11.83933626      11.92327156      12.00275193      12.07636682      12.13827093      12.18395539      12.21479331      12.23039956      12.23762117
          10.10921699      10.10760624      10.11728134      10.13885463      10.18597584      10.64482653      10.85670696      10.89126240      10.90802417      11.00129786      10.98296418      10.79658777      10.99060562      11.19224135      11.46828985      11.66764061      11.77436809      11.75909794      11.83897906      11.91295929      11.98186124      12.04089366      12.08090961      12.10425580      12.11357757
           9.67864490       9.66676749       9.64867371       9.66211243       9.68071171       9.67696979       9.65393557       9.65672980       9.73713506       9.90556820      10.14125609      10.39527004      10.65551010      10.87723139      11.08740495      11.45659015      11.62729334      11.67940539      11.64714949      11.72414546      11.79351312      11.86265399      11.91716251      11.95547118      11.97026589
           9.19888183       9.17386125       9.13173986       9.10837897       9.07238166       9.02919121       8.99276128       8.99509169       9.09317845       9.29979454       9.60731478       9.89874100      10.18342063      10.58565106      10.88152729      11.16651072      11.39712086      11.50233457      11.52733522      11.50373359      11.58804767      11.66463172      11.73357551      11.78991944      11.81910557
           8.72746994       8.67012185       8.61441946       8.55487203       8.47038396       8.37416465       8.28463751       8.21063502       8.30065829       8.56825430       8.93425713       9.31188995       9.59176162       9.90496283      10.22685192      10.51466125      11.05647759      11.23516451      11.29187905      11.31853202      11.36193445      11.46078487      11.54385025      11.61021712      11.65243264
           8.22884753       8.15231318       8.08363177       8.00178960       7.87130110       7.64522237       7.32678785       7.11499849       7.21577167       7.61836322       8.12427197       8.63368193       9.00874723       9.34606281       9.96766355      10.35667564      10.72184602      10.89146897      10.94682759      10.95911348      11.10944366      11.23893800      11.33760886      11.41093281      11.45935814
           7.65249970       7.58675076       7.48744071       7.33805708       7.09825219       6.64736362       5.97490062       5.34882993       5.57424070       6.30693633       7.10145490       7.78159280       8.29958614       8.95783085       9.51180570       9.90533930      10.24784656      10.42030792      10.47182764      10.67779795      10.84692820      10.98924759      11.08795783      11.15658862      11.19532288
           7.06750577       7.00715992       6.85682653       6.59314240       6.18704926       5.51982279       4.42969607       2.57325703       1.70269851       4.46436768       5.77925729       6.78227723       7.46802843       8.01978003       8.84160401       9.34640726       9.65420434       9.79795143      10.11535251      10.36910690      10.55972011      10.69981122      10.78812025      10.83964980      10.85667289
           6.56186607       6.47163782       6.26818812       5.92254705       5.43192651       4.77577619       3.85930851       2.76487322       1.43275281       3.33025674       4.58851807       5.75476146       6.60840830       7.29620355       7.94000040       8.74766971       8.96770262       9.36849242       9.72803373      10.00355431      10.21202569      10.35545620      10.43518009      10.47830044      10.49034403
           6.14160749       6.00518066       5.76115257       5.40087921       4.92757021       4.31451299       3.51327293       2.64662564       1.44439643       2.78585837       3.85135719       4.95687703       5.86233630       6.59025525       7.29909823       8.17269513       8.63565976       8.88105655       9.23993046       9.51169974       9.69304125       9.87949389      10.00616340      10.06553333      10.08668569
           5.75919464       5.59524956       5.34913755       5.00953086       4.56628792       3.98109318       3.23458026       2.45694354       1.41343197       2.50115237       3.41524355       4.36496982       5.20693987       5.94858537       6.66738465       7.31387878       7.83935531       8.28226190       8.62716850       8.89828998       9.07656424       9.27268765       9.47307599       9.57758076       9.61221301
           5.42761006       5.26121844       5.03336423       4.70896056       4.27960612       3.69185529       2.99346197       2.28464489       1.28794631       2.31706311       3.14817685       3.97544794       4.72725219       5.43172819       6.09223504       6.74431671       7.29124241       7.72220481       8.06132371       8.32900893       8.55037146       8.73664305       8.92882915       9.05182987       9.10480115
           5.10280663       4.96349161       4.75373195       4.44843652       4.02963627       3.44490884       2.75900036       2.08318450       1.13579015       2.14088215       2.93419851       3.70765401       4.38584538       5.02903110       5.65218002       6.24197531       6.79255957       7.21957605       7.58408184       7.88495148       8.09690476       8.28585833       8.45331087       8.57140597       8.63424631
           4.76245933       4.67174149       4.48163756       4.19089207       3.79394911       3.21236617       2.51241731       1.86904917       1.00641682       1.96883813       2.72033809       3.46999484       4.14937945       4.74612489       5.32611410       5.88433467       6.39475588       6.80273830       7.13011630       7.44483475       7.66648150       7.85330598       8.01751912       8.14902741       8.20116871