BEGIN options
  BOUNDNAMES
END options

BEGIN dimensions
  MAXBOUND  1000
END dimensions

BEGIN period  1
  1 1 1 4.20296217E-03 land
  1 1 2 4.20296217E-03 land
  1 1 3 4.20296217E-03 land
  1 1 4 4.20296217E-03 land
  1 1 5 4.20296217E-03 land
  1 1 6 4.20296217E-03 land
  1 1 7 4.20296217E-03 land
  1 1 8 4.20296217E-03 land
  1 1 9 4.20296217E-03 land
  1 1 10 4.20296217E-03 land
  1 1 11 4.20296217E-03 land
  1 1 12 4.20296217E-03 land
  1 1 13 4.20296217E-03 land
  1 1 14 4.20296217E-03 land
  1 1 15 4.20296217E-03 land
  1 1 16 4.20296217E-03 land
  1 1 17 4.20296217E-03 land
  1 1 18 4.20296217E-03 land
  1 1 19 4.20296217E-03 land
  1 1 20 4.20296217E-03 land
  1 1 21 4.20296217E-03 land
  1 1 22 4.20296217E-03 land
  1 1 23 4.20296217E-03 land
  1 1 24 4.20296217E-03 land
  1 1 25 4.20296217E-03 land
  1 2 1 4.20296217E-03 land
  1 2 2 4.20296217E-03 land
  1 2 3 4.20296217E-03 land
  1 2 4 4.20296217E-03 land
  1 2 5 4.20296217E-03 land
  1 2 6 4.20296217E-03 land
  1 2 7 4.20296217E-03 land
  1 2 8 4.20296217E-03 land
  1 2 9 4.20296217E-03 land
  1 2 10 4.20296217E-03 land
  1 2 11 4.20296217E-03 land
  1 2 12 4.20296217E-03 land
  1 2 13 4.20296217E-03 land
  1 2 14 4.20296217E-03 land
  1 2 15 4.20296217E-03 land
  1 2 16 4.20296217E-03 land
  1 2 17 4.20296217E-03 land
  1 2 18 4.20296217E-03 land
  1 2 19 4.20296217E-03 land
  1 2 20 4.20296217E-03 land
  1 2 21 4.20296217E-03 land
  1 2 22 4.20296217E-03 land
  1 2 23 4.20296217E-03 land
  1 2 24 4.20296217E-03 land
  1 2 25 4.20296217E-03 land
  1 3 1 4.20296217E-03 land
  1 3 2 4.20296217E-03 land
  1 3 3 4.20296217E-03 land
  1 3 4 4.20296217E-03 land
  1 3 5 4.20296217E-03 land
  1 3 6 4.20296217E-03 land
  1 3 7 4.20296217E-03 land
  1 3 8 4.20296217E-03 land
  1 3 9 4.20296217E-03 land
  1 3 10 4.20296217E-03 land
  1 3 11 4.20296217E-03 land
  1 3 12 4.20296217E-03 land
  1 3 13 4.20296217E-03 land
  1 3 14 4.20296217E-03 land
  1 3 15 4.20296217E-03 land
  1 3 16 4.20296217E-03 land
  1 3 17 4.20296217E-03 land
  1 3 18 4.20296217E-03 land
  1 3 19 4.20296217E-03 land
  1 3 20 4.20296217E-03 land
  1 3 21 4.20296217E-03 land
  1 3 22 4.20296217E-03 land
  1 3 23 4.20296217E-03 land
  1 3 24 4.20296217E-03 land
  1 3 25 4.20296217E-03 land
  1 4 1 4.20296217E-03 land
  1 4 2 4.20296217E-03 land
  1 4 3 4.20296217E-03 land
  1 4 4 9.31595213E-03 lake
  1 4 5 9.31595213E-03 lake
  1 4 6 9.31595213E-03 lake
  1 4 7 9.31595213E-03 lake
  1 4 8 4.20296217E-03 land
  1 4 9 4.20296217E-03 land
  1 4 10 4.20296217E-03 land
  1 4 11 4.20296217E-03 land
  1 4 12 4.20296217E-03 land
  1 4 13 4.20296217E-03 land
  1 4 14 4.20296217E-03 land
  1 4 15 4.20296217E-03 land
  1 4 16 4.20296217E-03 land
  1 4 17 4.20296217E-03 land
  1 4 18 4.20296217E-03 land
  1 4 19 4.20296217E-03 land
  1 4 20 4.20296217E-03 land
  1 4 21 4.20296217E-03 land
  1 4 22 4.20296217E-03 land
  1 4 23 4.20296217E-03 land
  1 4 24 4.20296217E-03 land
  1 4 25 4.20296217E-03 land
  1 5 1 4.20296217E-03 land
  1 5 2 4.20296217E-03 land
  1 5 3 9.31595213E-03 lake
  1 5 4 9.31595213E-03 lake
  1 5 5 9.31595213E-03 lake
  1 5 6 9.31595213E-03 lake
  1 5 7 9.31595213E-03 lake
  1 5 8 4.20296217E-03 land
  1 5 9 4.20296217E-03 land
  1 5 10 4.20296217E-03 land
  1 5 11 4.20296217E-03 land
  1 5 12 4.20296217E-03 land
  1 5 13 4.20296217E-03 land
  1 5 14 4.20296217E-03 land
  1 5 15 4.20296217E-03 land
  1 5 16 4.20296217E-03 land
  1 5 17 4.20296217E-03 land
  1 5 18 4.20296217E-03 land
  1 5 19 4.20296217E-03 land
  1 5 20 4.20296217E-03 land
  1 5 21 4.20296217E-03 land
  1 5 22 4.20296217E-03 land
  1 5 23 4.20296217E-03 land
  1 5 24 4.20296217E-03 land
  1 5 25 4.20296217E-03 land
  1 6 1 4.20296217E-03 land
  1 6 2 4.20296217E-03 land
  1 6 3 9.31595213E-03 lake
  1 6 4 9.31595213E-03 lake
  1 6 5 9.31595213E-03 lake
  1 6 6 9.31595213E-03 lake
  1 6 7 9.31595213E-03 lake
  1 6 8 4.20296217E-03 land
  1 6 9 4.20296217E-03 land
  1 6 10 4.20296217E-03 land
  1 6 11 4.20296217E-03 land
  1 6 12 4.20296217E-03 land
  1 6 13 4.20296217E-03 land
  1 6 14 4.20296217E-03 land
  1 6 15 4.20296217E-03 land
  1 6 16 4.20296217E-03 land
  1 6 17 4.20296217E-03 land
  1 6 18 4.20296217E-03 land
  1 6 19 4.20296217E-03 land
  1 6 20 4.20296217E-03 land
  1 6 21 4.20296217E-03 land
  1 6 22 4.20296217E-03 land
  1 6 23 4.20296217E-03 land
  1 6 24 4.20296217E-03 land
  1 6 25 4.20296217E-03 land
  1 7 1 4.20296217E-03 land
  1 7 2 4.20296217E-03 land
  1 7 3 9.31595213E-03 lake
  1 7 4 9.31595213E-03 lake
  1 7 5 9.31595213E-03 lake
  1 7 6 9.31595213E-03 lake
  1 7 7 9.31595213E-03 lake
  1 7 8 4.20296217E-03 land
  1 7 9 4.20296217E-03 land
  1 7 10 4.20296217E-03 land
  1 7 11 4.20296217E-03 land
  1 7 12 4.20296217E-03 land
  1 7 13 4.20296217E-03 land
  1 7 14 4.20296217E-03 land
  1 7 15 4.20296217E-03 land
  1 7 16 4.20296217E-03 land
  1 7 17 4.20296217E-03 land
  1 7 18 4.20296217E-03 land
  1 7 19 4.20296217E-03 land
  1 7 20 4.20296217E-03 land
  1 7 21 4.20296217E-03 land
  1 7 22 4.20296217E-03 land
  1 7 23 4.20296217E-03 land
  1 7 24 4.20296217E-03 land
  1 7 25 4.20296217E-03 land
  1 8 1 4.20296217E-03 land
  1 8 2 4.20296217E-03 land
  1 8 3 9.31595213E-03 lake
  1 8 4 9.31595213E-03 lake
  1 8 5 9.31595213E-03 lake
  1 8 6 9.31595213E-03 lake
  1 8 7 9.31595213E-03 lake
  1 8 8 4.20296217E-03 land
  1 8 9 4.20296217E-03 land
  1 8 10 4.20296217E-03 land
  1 8 11 4.20296217E-03 land
  1 8 12 4.20296217E-03 land
  1 8 13 4.20296217E-03 land
  1 8 14 4.20296217E-03 land
  1 8 15 4.20296217E-03 land
  1 8 16 4.20296217E-03 land
  1 8 17 4.20296217E-03 land
  1 8 18 4.20296217E-03 land
  1 8 19 4.20296217E-03 land
  1 8 20 4.20296217E-03 land
  1 8 21 4.20296217E-03 land
  1 8 22 4.20296217E-03 land
  1 8 23 4.20296217E-03 land
  1 8 24 4.20296217E-03 land
  1 8 25 4.20296217E-03 land
  1 9 1 4.20296217E-03 land
  1 9 2 4.20296217E-03 land
  1 9 3 9.31595213E-03 lake
  1 9 4 9.31595213E-03 lake
  1 9 5 9.31595213E-03 lake
  1 9 6 9.31595213E-03 lake
  1 9 7 9.31595213E-03 lake
  1 9 8 4.20296217E-03 land
  1 9 9 4.20296217E-03 land
  1 9 10 4.20296217E-03 land
  1 9 11 4.20296217E-03 land
  1 9 12 4.20296217E-03 land
  1 9 13 4.20296217E-03 land
  1 9 14 4.20296217E-03 land
  1 9 15 4.20296217E-03 land
  1 9 16 4.20296217E-03 land
  1 9 17 4.20296217E-03 land
  1 9 18 4.20296217E-03 land
  1 9 19 4.20296217E-03 land
  1 9 20 4.20296217E-03 land
  1 9 21 4.20296217E-03 land
  1 9 22 4.20296217E-03 land
  1 9 23 4.20296217E-03 land
  1 9 24 4.20296217E-03 land
  1 9 25 4.20296217E-03 land
  1 10 1 4.20296217E-03 land
  1 10 2 4.20296217E-03 land
  1 10 3 9.31595213E-03 lake
  1 10 4 9.31595213E-03 lake
  1 10 5 9.31595213E-03 lake
  1 10 6 9.31595213E-03 lake
  1 10 7 9.31595213E-03 lake
  1 10 8 9.31595213E-03 lake
  1 10 9 4.20296217E-03 land
  1 10 10 4.20296217E-03 land
  1 10 11 4.20296217E-03 land
  1 10 12 4.20296217E-03 land
  1 10 13 4.20296217E-03 land
  1 10 14 4.20296217E-03 land
  1 10 15 4.20296217E-03 land
  1 10 16 4.20296217E-03 land
  1 10 17 4.20296217E-03 land
  1 10 18 4.20296217E-03 land
  1 10 19 4.20296217E-03 land
  1 10 20 4.20296217E-03 land
  1 10 21 4.20296217E-03 land
  1 10 22 4.20296217E-03 land
  1 10 23 4.20296217E-03 land
  1 10 24 4.20296217E-03 land
  1 10 25 4.20296217E-03 land
  1 11 1 4.20296217E-03 land
  1 11 2 4.20296217E-03 land
  1 11 3 4.20296217E-03 land
  1 11 4 9.31595213E-03 lake
  1 11 5 9.31595213E-03 lake
  1 11 6 9.31595213E-03 lake
  1 11 7 9.31595213E-03 lake
  1 11 8 9.31595213E-03 lake
  1 11 9 4.20296217E-03 land
  1 11 10 4.20296217E-03 land
  1 11 11 4.20296217E-03 land
  1 11 12 4.20296217E-03 land
  1 11 13 4.20296217E-03 land
  1 11 14 4.20296217E-03 land
  1 11 15 4.20296217E-03 land
  1 11 16 4.20296217E-03 land
  1 11 17 4.20296217E-03 land
  1 11 18 4.20296217E-03 land
  1 11 19 4.20296217E-03 land
  1 11 20 4.20296217E-03 land
  1 11 21 4.20296217E-03 land
  1 11 22 4.20296217E-03 land
  1 11 23 4.20296217E-03 land
  1 11 24 4.20296217E-03 land
  1 11 25 4.20296217E-03 land
  1 12 1 4.20296217E-03 land
  1 12 2 4.20296217E-03 land
  1 12 3 4.20296217E-03 land
  1 12 4 9.31595213E-03 lake
  1 12 5 9.31595213E-03 lake
  1 12 6 9.31595213E-03 lake
  1 12 7 9.31595213E-03 lake
  1 12 8 9.31595213E-03 lake
  1 12 9 9.31595213E-03 lake
  1 12 10 4.20296217E-03 land
  1 12 11 4.20296217E-03 land
  1 12 12 4.20296217E-03 land
  1 12 13 4.20296217E-03 land
  1 12 14 4.20296217E-03 land
  1 12 15 4.20296217E-03 land
  1 12 16 4.20296217E-03 land
  1 12 17 4.20296217E-03 land
  1 12 18 4.20296217E-03 land
  1 12 19 4.20296217E-03 land
  1 12 20 4.20296217E-03 land
  1 12 21 4.20296217E-03 land
  1 12 22 4.20296217E-03 land
  1 12 23 4.20296217E-03 land
  1 12 24 4.20296217E-03 land
  1 12 25 4.20296217E-03 land
  1 13 1 4.20296217E-03 land
  1 13 2 4.20296217E-03 land
  1 13 3 4.20296217E-03 land
  1 13 4 4.20296217E-03 land
  1 13 5 9.31595213E-03 lake
  1 13 6 9.31595213E-03 lake
  1 13 7 9.31595213E-03 lake
  1 13 8 9.31595213E-03 lake
  1 13 9 9.31595213E-03 lake
  1 13 10 4.20296217E-03 land
  1 13 11 4.20296217E-03 land
  1 13 12 4.20296217E-03 land
  1 13 13 4.20296217E-03 land
  1 13 14 4.20296217E-03 land
  1 13 15 4.20296217E-03 land
  1 13 16 4.20296217E-03 land
  1 13 17 4.20296217E-03 land
  1 13 18 4.20296217E-03 land
  1 13 19 4.20296217E-03 land
  1 13 20 4.20296217E-03 land
  1 13 21 4.20296217E-03 land
  1 13 22 4.20296217E-03 land
  1 13 23 4.20296217E-03 land
  1 13 24 4.20296217E-03 land
  1 13 25 4.20296217E-03 land
  1 14 1 4.20296217E-03 land
  1 14 2 4.20296217E-03 land
  1 14 3 4.20296217E-03 land
  1 14 4 4.20296217E-03 land
  1 14 5 9.31595213E-03 lake
  1 14 6 9.31595213E-03 lake
  1 14 7 9.31595213E-03 lake
  1 14 8 9.31595213E-03 lake
  1 14 9 9.31595213E-03 lake
  1 14 10 4.20296217E-03 land
  1 14 11 4.20296217E-03 land
  1 14 12 4.20296217E-03 land
  1 14 13 4.20296217E-03 land
  1 14 14 4.20296217E-03 land
  1 14 15 4.20296217E-03 land
  1 14 16 4.20296217E-03 land
  1 14 17 4.20296217E-03 land
  1 14 18 4.20296217E-03 land
  1 14 19 4.20296217E-03 land
  1 14 20 4.20296217E-03 land
  1 14 21 4.20296217E-03 land
  1 14 22 4.20296217E-03 land
  1 14 23 4.20296217E-03 land
  1 14 24 4.20296217E-03 land
  1 14 25 4.20296217E-03 land
  1 15 1 4.20296217E-03 land
  1 15 2 4.20296217E-03 land
  1 15 3 4.20296217E-03 land
  1 15 4 4.20296217E-03 land
  1 15 5 9.31595213E-03 lake
  1 15 6 9.31595213E-03 lake
  1 15 7 9.31595213E-03 lake
  1 15 8 9.31595213E-03 lake
  1 15 9 9.31595213E-03 lake
  1 15 10 4.20296217E-03 land
  1 15 11 4.20296217E-03 land
  1 15 12 4.20296217E-03 land
  1 15 13 4.20296217E-03 land
  1 15 14 4.20296217E-03 land
  1 15 15 4.20296217E-03 land
  1 15 16 4.20296217E-03 land
  1 15 17 4.20296217E-03 land
  1 15 18 4.20296217E-03 land
  1 15 19 4.20296217E-03 land
  1 15 20 4.20296217E-03 land
  1 15 21 4.20296217E-03 land
  1 15 22 4.20296217E-03 land
  1 15 23 4.20296217E-03 land
  1 15 24 4.20296217E-03 land
  1 15 25 4.20296217E-03 land
  1 16 1 4.20296217E-03 land
  1 16 2 4.20296217E-03 land
  1 16 3 4.20296217E-03 land
  1 16 4 4.20296217E-03 land
  1 16 5 4.20296217E-03 land
  1 16 6 9.31595213E-03 lake
  1 16 7 9.31595213E-03 lake
  1 16 8 9.31595213E-03 lake
  1 16 9 9.31595213E-03 lake
  1 16 10 4.20296217E-03 land
  1 16 11 4.20296217E-03 land
  1 16 12 4.20296217E-03 land
  1 16 13 4.20296217E-03 land
  1 16 14 4.20296217E-03 land
  1 16 15 4.20296217E-03 land
  1 16 16 4.20296217E-03 land
  1 16 17 4.20296217E-03 land
  1 16 18 4.20296217E-03 land
  1 16 19 4.20296217E-03 land
  1 16 20 4.20296217E-03 land
  1 16 21 4.20296217E-03 land
  1 16 22 4.20296217E-03 land
  1 16 23 4.20296217E-03 land
  1 16 24 4.20296217E-03 land
  1 16 25 4.20296217E-03 land
  1 17 1 4.20296217E-03 land
  1 17 2 4.20296217E-03 land
  1 17 3 4.20296217E-03 land
  1 17 4 4.20296217E-03 land
  1 17 5 4.20296217E-03 land
  1 17 6 4.20296217E-03 land
  1 17 7 4.20296217E-03 land
  1 17 8 4.20296217E-03 land
  1 17 9 4.20296217E-03 land
  1 17 10 4.20296217E-03 land
  1 17 11 4.20296217E-03 land
  1 17 12 4.20296217E-03 land
  1 17 13 4.20296217E-03 land
  1 17 14 4.20296217E-03 land
  1 17 15 4.20296217E-03 land
  1 17 16 4.20296217E-03 land
  1 17 17 4.20296217E-03 land
  1 17 18 4.20296217E-03 land
  1 17 19 4.20296217E-03 land
  1 17 20 4.20296217E-03 land
  1 17 21 4.20296217E-03 land
  1 17 22 4.20296217E-03 land
  1 17 23 4.20296217E-03 land
  1 17 24 4.20296217E-03 land
  1 17 25 4.20296217E-03 land
  1 18 1 4.20296217E-03 land
  1 18 2 4.20296217E-03 land
  1 18 3 4.20296217E-03 land
  1 18 4 4.20296217E-03 land
  1 18 5 4.20296217E-03 land
  1 18 6 4.20296217E-03 land
  1 18 7 4.20296217E-03 land
  1 18 8 4.20296217E-03 land
  1 18 9 4.20296217E-03 land
  1 18 10 4.20296217E-03 land
  1 18 11 4.20296217E-03 land
  1 18 12 4.20296217E-03 land
  1 18 13 4.20296217E-03 land
  1 18 14 4.20296217E-03 land
  1 18 15 4.20296217E-03 land
  1 18 16 4.20296217E-03 land
  1 18 17 4.20296217E-03 land
  1 18 18 4.20296217E-03 land
  1 18 19 4.20296217E-03 land
  1 18 20 4.20296217E-03 land
  1 18 21 4.20296217E-03 land
  1 18 22 4.20296217E-03 land
  1 18 23 4.20296217E-03 land
  1 18 24 4.20296217E-03 land
  1 18 25 4.20296217E-03 land
  1 19 1 4.20296217E-03 land
  1 19 2 4.20296217E-03 land
  1 19 3 4.20296217E-03 land
  1 19 4 4.20296217E-03 land
  1 19 5 4.20296217E-03 land
  1 19 6 4.20296217E-03 land
  1 19 7 4.20296217E-03 land
  1 19 8 4.20296217E-03 land
  1 19 9 4.20296217E-03 land
  1 19 10 4.20296217E-03 land
  1 19 11 4.20296217E-03 land
  1 19 12 4.20296217E-03 land
  1 19 13 4.20296217E-03 land
  1 19 14 4.20296217E-03 land
  1 19 15 4.20296217E-03 land
  1 19 16 4.20296217E-03 land
  1 19 17 4.20296217E-03 land
  1 19 18 4.20296217E-03 land
  1 19 19 4.20296217E-03 land
  1 19 20 4.20296217E-03 land
  1 19 21 4.20296217E-03 land
  1 19 22 4.20296217E-03 land
  1 19 23 4.20296217E-03 land
  1 19 24 4.20296217E-03 land
  1 19 25 4.20296217E-03 land
  1 20 1 4.20296217E-03 land
  1 20 2 4.20296217E-03 land
  1 20 3 4.20296217E-03 land
  1 20 4 4.20296217E-03 land
  1 20 5 4.20296217E-03 land
  1 20 6 4.20296217E-03 land
  1 20 7 4.20296217E-03 land
  1 20 8 4.20296217E-03 land
  1 20 9 4.20296217E-03 land
  1 20 10 4.20296217E-03 land
  1 20 11 4.20296217E-03 land
  1 20 12 4.20296217E-03 land
  1 20 13 4.20296217E-03 land
  1 20 14 4.20296217E-03 land
  1 20 15 4.20296217E-03 land
  1 20 16 4.20296217E-03 land
  1 20 17 4.20296217E-03 land
  1 20 18 4.20296217E-03 land
  1 20 19 4.20296217E-03 land
  1 20 20 4.20296217E-03 land
  1 20 21 4.20296217E-03 land
  1 20 22 4.20296217E-03 land
  1 20 23 4.20296217E-03 land
  1 20 24 4.20296217E-03 land
  1 20 25 4.20296217E-03 land
  1 21 1 4.20296217E-03 land
  1 21 2 4.20296217E-03 land
  1 21 3 4.20296217E-03 land
  1 21 4 4.20296217E-03 land
  1 21 5 4.20296217E-03 land
  1 21 6 4.20296217E-03 land
  1 21 7 4.20296217E-03 land
  1 21 8 4.20296217E-03 land
  1 21 9 4.20296217E-03 land
  1 21 10 4.20296217E-03 land
  1 21 11 4.20296217E-03 land
  1 21 12 4.20296217E-03 land
  1 21 13 4.20296217E-03 land
  1 21 14 4.20296217E-03 land
  1 21 15 4.20296217E-03 land
  1 21 16 4.20296217E-03 land
  1 21 17 4.20296217E-03 land
  1 21 18 4.20296217E-03 land
  1 21 19 4.20296217E-03 land
  1 21 20 4.20296217E-03 land
  1 21 21 4.20296217E-03 land
  1 21 22 4.20296217E-03 land
  1 21 23 4.20296217E-03 land
  1 21 24 4.20296217E-03 land
  1 21 25 4.20296217E-03 land
  1 22 1 4.20296217E-03 land
  1 22 2 4.20296217E-03 land
  1 22 3 4.20296217E-03 land
  1 22 4 4.20296217E-03 land
  1 22 5 4.20296217E-03 land
  1 22 6 4.20296217E-03 land
  1 22 7 4.20296217E-03 land
  1 22 8 4.20296217E-03 land
  1 22 9 4.20296217E-03 land
  1 22 10 4.20296217E-03 land
  1 22 11 4.20296217E-03 land
  1 22 12 4.20296217E-03 land
  1 22 13 4.20296217E-03 land
  1 22 14 4.20296217E-03 land
  1 22 15 4.20296217E-03 land
  1 22 16 4.20296217E-03 land
  1 22 17 4.20296217E-03 land
  1 22 18 4.20296217E-03 land
  1 22 19 4.20296217E-03 land
  1 22 20 4.20296217E-03 land
  1 22 21 4.20296217E-03 land
  1 22 22 4.20296217E-03 land
  1 22 23 4.20296217E-03 land
  1 22 24 4.20296217E-03 land
  1 22 25 4.20296217E-03 land
  1 23 1 4.20296217E-03 land
  1 23 2 4.20296217E-03 land
  1 23 3 4.20296217E-03 land
  1 23 4 4.20296217E-03 land
  1 23 5 4.20296217E-03 land
  1 23 6 4.20296217E-03 land
  1 23 7 4.20296217E-03 land
  1 23 8 4.20296217E-03 land
  1 23 9 4.20296217E-03 land
  1 23 10 4.20296217E-03 land
  1 23 11 4.20296217E-03 land
  1 23 12 4.20296217E-03 land
  1 23 13 4.20296217E-03 land
  1 23 14 4.20296217E-03 land
  1 23 15 4.20296217E-03 land
  1 23 16 4.20296217E-03 land
  1 23 17 4.20296217E-03 land
  1 23 18 4.20296217E-03 land
  1 23 19 4.20296217E-03 land
  1 23 20 4.20296217E-03 land
  1 23 21 4.20296217E-03 land
  1 23 22 4.20296217E-03 land
  1 23 23 4.20296217E-03 land
  1 23 24 4.20296217E-03 land
  1 23 25 4.20296217E-03 land
  1 24 1 4.20296217E-03 land
  1 24 2 4.20296217E-03 land
  1 24 3 4.20296217E-03 land
  1 24 4 4.20296217E-03 land
  1 24 5 4.20296217E-03 land
  1 24 6 4.20296217E-03 land
  1 24 7 4.20296217E-03 land
  1 24 8 4.20296217E-03 land
  1 24 9 4.20296217E-03 land
  1 24 10 4.20296217E-03 land
  1 24 11 4.20296217E-03 land
  1 24 12 4.20296217E-03 land
  1 24 13 4.20296217E-03 land
  1 24 14 4.20296217E-03 land
  1 24 15 4.20296217E-03 land
  1 24 16 4.20296217E-03 land
  1 24 17 4.20296217E-03 land
  1 24 18 4.20296217E-03 land
  1 24 19 4.20296217E-03 land
  1 24 20 4.20296217E-03 land
  1 24 21 4.20296217E-03 land
  1 24 22 4.20296217E-03 land
  1 24 23 4.20296217E-03 land
  1 24 24 4.20296217E-03 land
  1 24 25 4.20296217E-03 land
  1 25 1 4.20296217E-03 land
  1 25 2 4.20296217E-03 land
  1 25 3 4.20296217E-03 land
  1 25 4 4.20296217E-03 land
  1 25 5 4.20296217E-03 land
  1 25 6 4.20296217E-03 land
  1 25 7 4.20296217E-03 land
  1 25 8 4.20296217E-03 land
  1 25 9 4.20296217E-03 land
  1 25 10 4.20296217E-03 land
  1 25 11 4.20296217E-03 land
  1 25 12 4.20296217E-03 land
  1 25 13 4.20296217E-03 land
  1 25 14 4.20296217E-03 land
  1 25 15 4.20296217E-03 land
  1 25 16 4.20296217E-03 land
  1 25 17 4.20296217E-03 land
  1 25 18 4.20296217E-03 land
  1 25 19 4.20296217E-03 land
  1 25 20 4.20296217E-03 land
  1 25 21 4.20296217E-03 land
  1 25 22 4.20296217E-03 land
  1 25 23 4.20296217E-03 land
  1 25 24 4.20296217E-03 land
  1 25 25 4.20296217E-03 land
  1 26 1 4.20296217E-03 land
  1 26 2 4.20296217E-03 land
  1 26 3 4.20296217E-03 land
  1 26 4 4.20296217E-03 land
  1 26 5 4.20296217E-03 land
  1 26 6 4.20296217E-03 land
  1 26 7 4.20296217E-03 land
  1 26 8 4.20296217E-03 land
  1 26 9 4.20296217E-03 land
  1 26 10 4.20296217E-03 land
  1 26 11 4.20296217E-03 land
  1 26 12 4.20296217E-03 land
  1 26 13 4.20296217E-03 land
  1 26 14 4.20296217E-03 land
  1 26 15 4.20296217E-03 land
  1 26 16 4.20296217E-03 land
  1 26 17 4.20296217E-03 land
  1 26 18 4.20296217E-03 land
  1 26 19 4.20296217E-03 land
  1 26 20 4.20296217E-03 land
  1 26 21 4.20296217E-03 land
  1 26 22 4.20296217E-03 land
  1 26 23 4.20296217E-03 land
  1 26 24 4.20296217E-03 land
  1 26 25 4.20296217E-03 land
  1 27 1 4.20296217E-03 land
  1 27 2 4.20296217E-03 land
  1 27 3 4.20296217E-03 land
  1 27 4 4.20296217E-03 land
  1 27 5 4.20296217E-03 land
  1 27 6 4.20296217E-03 land
  1 27 7 4.20296217E-03 land
  1 27 8 4.20296217E-03 land
  1 27 9 4.20296217E-03 land
  1 27 10 4.20296217E-03 land
  1 27 11 4.20296217E-03 land
  1 27 12 4.20296217E-03 land
  1 27 13 4.20296217E-03 land
  1 27 14 4.20296217E-03 land
  1 27 15 4.20296217E-03 land
  1 27 16 4.20296217E-03 land
  1 27 17 4.20296217E-03 land
  1 27 18 4.20296217E-03 land
  1 27 19 4.20296217E-03 land
  1 27 20 4.20296217E-03 land
  1 27 21 4.20296217E-03 land
  1 27 22 4.20296217E-03 land
  1 27 23 4.20296217E-03 land
  1 27 24 4.20296217E-03 land
  1 27 25 4.20296217E-03 land
  1 28 1 4.20296217E-03 land
  1 28 2 4.20296217E-03 land
  1 28 3 4.20296217E-03 land
  1 28 4 4.20296217E-03 land
  1 28 5 4.20296217E-03 land
  1 28 6 4.20296217E-03 land
  1 28 7 4.20296217E-03 land
  1 28 8 4.20296217E-03 land
  1 28 9 4.20296217E-03 land
  1 28 10 4.20296217E-03 land
  1 28 11 4.20296217E-03 land
  1 28 12 4.20296217E-03 land
  1 28 13 4.20296217E-03 land
  1 28 14 4.20296217E-03 land
  1 28 15 4.20296217E-03 land
  1 28 16 4.20296217E-03 land
  1 28 17 4.20296217E-03 land
  1 28 18 4.20296217E-03 land
  1 28 19 4.20296217E-03 land
  1 28 20 4.20296217E-03 land
  1 28 21 4.20296217E-03 land
  1 28 22 4.20296217E-03 land
  1 28 23 4.20296217E-03 land
  1 28 24 4.20296217E-03 land
  1 28 25 4.20296217E-03 land
  1 29 1 4.20296217E-03 land
  1 29 2 4.20296217E-03 land
  1 29 3 4.20296217E-03 land
  1 29 4 4.20296217E-03 land
  1 29 5 4.20296217E-03 land
  1 29 6 4.20296217E-03 land
  1 29 7 4.20296217E-03 land
  1 29 8 4.20296217E-03 land
  1 29 9 4.20296217E-03 land
  1 29 10 4.20296217E-03 land
  1 29 11 4.20296217E-03 land
  1 29 12 4.20296217E-03 land
  1 29 13 4.20296217E-03 land
  1 29 14 4.20296217E-03 land
  1 29 15 4.20296217E-03 land
  1 29 16 4.20296217E-03 land
  1 29 17 4.20296217E-03 land
  1 29 18 4.20296217E-03 land
  1 29 19 4.20296217E-03 land
  1 29 20 4.20296217E-03 land
  1 29 21 4.20296217E-03 land
  1 29 22 4.20296217E-03 land
  1 29 23 4.20296217E-03 land
  1 29 24 4.20296217E-03 land
  1 29 25 4.20296217E-03 land
  1 30 1 4.20296217E-03 land
  1 30 2 4.20296217E-03 land
  1 30 3 4.20296217E-03 land
  1 30 4 4.20296217E-03 land
  1 30 5 4.20296217E-03 land
  1 30 6 4.20296217E-03 land
  1 30 7 4.20296217E-03 land
  1 30 8 4.20296217E-03 land
  1 30 9 4.20296217E-03 land
  1 30 10 4.20296217E-03 land
  1 30 11 4.20296217E-03 land
  1 30 12 4.20296217E-03 land
  1 30 13 4.20296217E-03 land
  1 30 14 4.20296217E-03 land
  1 30 15 4.20296217E-03 land
  1 30 16 4.20296217E-03 land
  1 30 17 4.20296217E-03 land
  1 30 18 4.20296217E-03 land
  1 30 19 4.20296217E-03 land
  1 30 20 4.20296217E-03 land
  1 30 21 4.20296217E-03 land
  1 30 22 4.20296217E-03 land
  1 30 23 4.20296217E-03 land
  1 30 24 4.20296217E-03 land
  1 30 25 4.20296217E-03 land
  1 31 1 4.20296217E-03 land
  1 31 2 4.20296217E-03 land
  1 31 3 4.20296217E-03 land
  1 31 4 4.20296217E-03 land
  1 31 5 4.20296217E-03 land
  1 31 6 4.20296217E-03 land
  1 31 7 4.20296217E-03 land
  1 31 8 4.20296217E-03 land
  1 31 9 4.20296217E-03 land
  1 31 10 4.20296217E-03 land
  1 31 11 4.20296217E-03 land
  1 31 12 4.20296217E-03 land
  1 31 13 4.20296217E-03 land
  1 31 14 4.20296217E-03 land
  1 31 15 4.20296217E-03 land
  1 31 16 4.20296217E-03 land
  1 31 17 4.20296217E-03 land
  1 31 18 4.20296217E-03 land
  1 31 19 4.20296217E-03 land
  1 31 20 4.20296217E-03 land
  1 31 21 4.20296217E-03 land
  1 31 22 4.20296217E-03 land
  1 31 23 4.20296217E-03 land
  1 31 24 4.20296217E-03 land
  1 31 25 4.20296217E-03 land
  1 32 1 4.20296217E-03 land
  1 32 2 4.20296217E-03 land
  1 32 3 4.20296217E-03 land
  1 32 4 4.20296217E-03 land
  1 32 5 4.20296217E-03 land
  1 32 6 4.20296217E-03 land
  1 32 7 4.20296217E-03 land
  1 32 8 4.20296217E-03 land
  1 32 9 4.20296217E-03 land
  1 32 10 4.20296217E-03 land
  1 32 11 4.20296217E-03 land
  1 32 12 4.20296217E-03 land
  1 32 13 4.20296217E-03 land
  1 32 14 4.20296217E-03 land
  1 32 15 4.20296217E-03 land
  1 32 16 4.20296217E-03 land
  1 32 17 4.20296217E-03 land
  1 32 18 4.20296217E-03 land
  1 32 19 4.20296217E-03 land
  1 32 20 4.20296217E-03 land
  1 32 21 4.20296217E-03 land
  1 32 22 4.20296217E-03 land
  1 32 23 4.20296217E-03 land
  1 32 24 4.20296217E-03 land
  1 32 25 4.20296217E-03 land
  1 33 1 4.20296217E-03 land
  1 33 2 4.20296217E-03 land
  1 33 3 4.20296217E-03 land
  1 33 4 4.20296217E-03 land
  1 33 5 4.20296217E-03 land
  1 33 6 4.20296217E-03 land
  1 33 7 4.20296217E-03 land
  1 33 8 4.20296217E-03 land
  1 33 9 4.20296217E-03 land
  1 33 10 4.20296217E-03 land
  1 33 11 4.20296217E-03 land
  1 33 12 4.20296217E-03 land
  1 33 13 4.20296217E-03 land
  1 33 14 4.20296217E-03 land
  1 33 15 4.20296217E-03 land
  1 33 16 4.20296217E-03 land
  1 33 17 4.20296217E-03 land
  1 33 18 4.20296217E-03 land
  1 33 19 4.20296217E-03 land
  1 33 20 4.20296217E-03 land
  1 33 21 4.20296217E-03 land
  1 33 22 4.20296217E-03 land
  1 33 23 4.20296217E-03 land
  1 33 24 4.20296217E-03 land
  1 33 25 4.20296217E-03 land
  1 34 1 4.20296217E-03 land
  1 34 2 4.20296217E-03 land
  1 34 3 4.20296217E-03 land
  1 34 4 4.20296217E-03 land
  1 34 5 4.20296217E-03 land
  1 34 6 4.20296217E-03 land
  1 34 7 4.20296217E-03 land
  1 34 8 4.20296217E-03 land
  1 34 9 4.20296217E-03 land
  1 34 10 4.20296217E-03 land
  1 34 11 4.20296217E-03 land
  1 34 12 4.20296217E-03 land
  1 34 13 4.20296217E-03 land
  1 34 14 4.20296217E-03 land
  1 34 15 4.20296217E-03 land
  1 34 16 4.20296217E-03 land
  1 34 17 4.20296217E-03 land
  1 34 18 4.20296217E-03 land
  1 34 19 4.20296217E-03 land
  1 34 20 4.20296217E-03 land
  1 34 21 4.20296217E-03 land
  1 34 22 4.20296217E-03 land
  1 34 23 4.20296217E-03 land
  1 34 24 4.20296217E-03 land
  1 34 25 4.20296217E-03 land
  1 35 1 4.20296217E-03 land
  1 35 2 4.20296217E-03 land
  1 35 3 4.20296217E-03 land
  1 35 4 4.20296217E-03 land
  1 35 5 4.20296217E-03 land
  1 35 6 4.20296217E-03 land
  1 35 7 4.20296217E-03 land
  1 35 8 4.20296217E-03 land
  1 35 9 4.20296217E-03 land
  1 35 10 4.20296217E-03 land
  1 35 11 4.20296217E-03 land
  1 35 12 4.20296217E-03 land
  1 35 13 4.20296217E-03 land
  1 35 14 4.20296217E-03 land
  1 35 15 4.20296217E-03 land
  1 35 16 4.20296217E-03 land
  1 35 17 4.20296217E-03 land
  1 35 18 4.20296217E-03 land
  1 35 19 4.20296217E-03 land
  1 35 20 4.20296217E-03 land
  1 35 21 4.20296217E-03 land
  1 35 22 4.20296217E-03 land
  1 35 23 4.20296217E-03 land
  1 35 24 4.20296217E-03 land
  1 35 25 4.20296217E-03 land
  1 36 1 4.20296217E-03 land
  1 36 2 4.20296217E-03 land
  1 36 3 4.20296217E-03 land
  1 36 4 4.20296217E-03 land
  1 36 5 4.20296217E-03 land
  1 36 6 4.20296217E-03 land
  1 36 7 4.20296217E-03 land
  1 36 8 4.20296217E-03 land
  1 36 9 4.20296217E-03 land
  1 36 10 4.20296217E-03 land
  1 36 11 4.20296217E-03 land
  1 36 12 4.20296217E-03 land
  1 36 13 4.20296217E-03 land
  1 36 14 4.20296217E-03 land
  1 36 15 4.20296217E-03 land
  1 36 16 4.20296217E-03 land
  1 36 17 4.20296217E-03 land
  1 36 18 4.20296217E-03 land
  1 36 19 4.20296217E-03 land
  1 36 20 4.20296217E-03 land
  1 36 21 4.20296217E-03 land
  1 36 22 4.20296217E-03 land
  1 36 23 4.20296217E-03 land
  1 36 24 4.20296217E-03 land
  1 36 25 4.20296217E-03 land
  1 37 1 4.20296217E-03 land
  1 37 2 4.20296217E-03 land
  1 37 3 4.20296217E-03 land
  1 37 4 4.20296217E-03 land
  1 37 5 4.20296217E-03 land
  1 37 6 4.20296217E-03 land
  1 37 7 4.20296217E-03 land
  1 37 8 4.20296217E-03 land
  1 37 9 4.20296217E-03 land
  1 37 10 4.20296217E-03 land
  1 37 11 4.20296217E-03 land
  1 37 12 4.20296217E-03 land
  1 37 13 4.20296217E-03 land
  1 37 14 4.20296217E-03 land
  1 37 15 4.20296217E-03 land
  1 37 16 4.20296217E-03 land
  1 37 17 4.20296217E-03 land
  1 37 18 4.20296217E-03 land
  1 37 19 4.20296217E-03 land
  1 37 20 4.20296217E-03 land
  1 37 21 4.20296217E-03 land
  1 37 22 4.20296217E-03 land
  1 37 23 4.20296217E-03 land
  1 37 24 4.20296217E-03 land
  1 37 25 4.20296217E-03 land
  1 38 1 4.20296217E-03 land
  1 38 2 4.20296217E-03 land
  1 38 3 4.20296217E-03 land
  1 38 4 4.20296217E-03 land
  1 38 5 4.20296217E-03 land
  1 38 6 4.20296217E-03 land
  1 38 7 4.20296217E-03 land
  1 38 8 4.20296217E-03 land
  1 38 9 4.20296217E-03 land
  1 38 10 4.20296217E-03 land
  1 38 11 4.20296217E-03 land
  1 38 12 4.20296217E-03 land
  1 38 13 4.20296217E-03 land
  1 38 14 4.20296217E-03 land
  1 38 15 4.20296217E-03 land
  1 38 16 4.20296217E-03 land
  1 38 17 4.20296217E-03 land
  1 38 18 4.20296217E-03 land
  1 38 19 4.20296217E-03 land
  1 38 20 4.20296217E-03 land
  1 38 21 4.20296217E-03 land
  1 38 22 4.20296217E-03 land
  1 38 23 4.20296217E-03 land
  1 38 24 4.20296217E-03 land
  1 38 25 4.20296217E-03 land
  1 39 1 4.20296217E-03 land
  1 39 2 4.20296217E-03 land
  1 39 3 4.20296217E-03 land
  1 39 4 4.20296217E-03 land
  1 39 5 4.20296217E-03 land
  1 39 6 4.20296217E-03 land
  1 39 7 4.20296217E-03 land
  1 39 8 4.20296217E-03 land
  1 39 9 4.20296217E-03 land
  1 39 10 4.20296217E-03 land
  1 39 11 4.20296217E-03 land
  1 39 12 4.20296217E-03 land
  1 39 13 4.20296217E-03 land
  1 39 14 4.20296217E-03 land
  1 39 15 4.20296217E-03 land
  1 39 16 4.20296217E-03 land
  1 39 17 4.20296217E-03 land
  1 39 18 4.20296217E-03 land
  1 39 19 4.20296217E-03 land
  1 39 20 4.20296217E-03 land
  1 39 21 4.20296217E-03 land
  1 39 22 4.20296217E-03 land
  1 39 23 4.20296217E-03 land
  1 39 24 4.20296217E-03 land
  1 39 25 4.20296217E-03 land
  1 40 1 4.20296217E-03 land
  1 40 2 4.20296217E-03 land
  1 40 3 4.20296217E-03 land
  1 40 4 4.20296217E-03 land
  1 40 5 4.20296217E-03 land
  1 40 6 4.20296217E-03 land
  1 40 7 4.20296217E-03 land
  1 40 8 4.20296217E-03 land
  1 40 9 4.20296217E-03 land
  1 40 10 4.20296217E-03 land
  1 40 11 4.20296217E-03 land
  1 40 12 4.20296217E-03 land
  1 40 13 4.20296217E-03 land
  1 40 14 4.20296217E-03 land
  1 40 15 4.20296217E-03 land
  1 40 16 4.20296217E-03 land
  1 40 17 4.20296217E-03 land
  1 40 18 4.20296217E-03 land
  1 40 19 4.20296217E-03 land
  1 40 20 4.20296217E-03 land
  1 40 21 4.20296217E-03 land
  1 40 22 4.20296217E-03 land
  1 40 23 4.20296217E-03 land
  1 40 24 4.20296217E-03 land
  1 40 25 4.20296217E-03 land
END period  1

BEGIN period  2
  1 1 1 4.24640982E-03 land
  1 1 2 4.24640982E-03 land
  1 1 3 4.24640982E-03 land
  1 1 4 4.24640982E-03 land
  1 1 5 4.24640982E-03 land
  1 1 6 4.24640982E-03 land
  1 1 7 4.24640982E-03 land
  1 1 8 4.24640982E-03 land
  1 1 9 4.24640982E-03 land
  1 1 10 4.24640982E-03 land
  1 1 11 4.24640982E-03 land
  1 1 12 4.24640982E-03 land
  1 1 13 4.24640982E-03 land
  1 1 14 4.24640982E-03 land
  1 1 15 4.24640982E-03 land