BEGIN options
  TIME_UNITS  days
  START_DATE_TIME  1962-01-01t00:00:00
END options

BEGIN dimensions
  NPER  21
END dimensions

BEGIN perioddata
   16071.00000000  1       1.00000000
     365.00000000  1       1.00000000
     365.00000000  1       1.00000000
     366.00000000  1       1.00000000
     365.00000000  1       1.00000000
     365.00000000  1       1.00000000
     365.00000000  1       1.00000000
     366.00000000  1       1.00000000
     365.00000000  1       1.00000000
     365.00000000  1       1.00000000
     365.00000000  1       1.00000000
     366.00000000  1       1.00000000
     365.00000000  1       1.00000000
     365.00000000  1       1.00000000
     365.00000000  1       1.00000000
     366.00000000  1       1.00000000
     365.00000000  1       1.00000000
     365.00000000  1       1.00000000
     365.00000000  1       1.00000000
     366.00000000  1       1.00000000
     365.00000000  1       1.00000000
END perioddata

