BEGIN options
  LENGTH_UNITS  feet
END options

BEGIN dimensions
  NLAY  5
  NROW  40
  NCOL  25
END dimensions

BEGIN griddata
  delr
    CONSTANT     500.00000000
  delc
    CONSTANT     500.00000000
  top
    INTERNAL  FACTOR  1.0
        13.33000000      13.32000000      13.30000000      13.28000000      13.28000000      13.31000000      13.34000000      13.38000000      13.42000000      13.46000000      13.53000000      13.60000000      13.66000000      13.73000000      13.79000000      13.84000000      13.89000000      13.94000000      13.99000000      14.05000000      14.09000000      14.14000000      14.19000000      14.24000000      14.27000000
        13.31000000      13.29000000      13.26000000      13.24000000      13.23000000      13.25000000      13.30000000      13.36000000      13.43000000      13.51000000      13.59000000      13.67000000      13.74000000      13.81000000      13.86000000      13.91000000      13.95000000      13.99000000      14.03000000      14.07000000      14.10000000      14.14000000      14.18000000      14.23000000      14.27000000
        13.28000000      13.24000000      13.18000000      13.13000000      13.12000000      13.13000000      13.20000000      13.30000000      13.41000000      13.52000000      13.61000000      13.71000000      13.79000000      13.85000000      13.91000000      13.96000000      14.01000000      14.05000000      14.09000000      14.13000000      14.17000000      14.20000000      14.22000000      14.23000000      14.24000000
        13.23000000      13.17000000      13.06000000      20.00000000      20.00000000      20.00000000      20.00000000      13.20000000      13.37000000      13.50000000      13.63000000      13.72000000      13.80000000      13.88000000      13.93000000      13.99000000      14.04000000      14.09000000      14.13000000      14.17000000      14.21000000      14.23000000      14.24000000      14.23000000      14.21000000
        13.17000000      13.10000000      20.00000000      20.00000000      20.00000000      20.00000000      20.00000000      13.14000000      13.33000000      13.48000000      13.61000000      13.72000000      13.80000000      13.88000000      13.95000000      14.00000000      14.06000000      14.11000000      14.15000000      14.19000000      14.22000000      14.23000000      14.22000000      14.20000000      14.16000000
        13.13000000      13.07000000      20.00000000      20.00000000      20.00000000      20.00000000      20.00000000      13.13000000      13.31000000      13.46000000      13.59000000      13.70000000      13.79000000      13.87000000      13.94000000      14.00000000      14.05000000      14.10000000      14.14000000      14.18000000      14.20000000      14.20000000      14.17000000      14.12000000      14.10000000
        13.11000000      13.06000000      20.00000000      20.00000000      20.00000000      20.00000000      20.00000000      13.12000000      13.29000000      13.43000000      13.56000000      13.67000000      13.76000000      13.83000000      13.91000000      13.97000000      14.02000000      14.06000000      14.10000000      14.13000000      14.15000000      14.14000000      14.09000000      14.04000000      14.04000000
        13.09000000      13.05000000      20.00000000      20.00000000      20.00000000      20.00000000      20.00000000      13.11000000      13.26000000      13.40000000      13.52000000      13.63000000      13.72000000      13.79000000      13.86000000      13.92000000      13.97000000      14.00000000      14.03000000      14.05000000      14.06000000      14.05000000      14.02000000      13.97000000      13.96000000
        13.06000000      13.03000000      20.00000000      20.00000000      20.00000000      20.00000000      20.00000000      13.06000000      13.22000000      13.35000000      13.47000000      13.58000000      13.66000000      13.74000000      13.80000000      13.85000000      13.89000000      13.92000000      13.94000000      13.94000000      13.94000000      13.94000000      13.91000000      13.87000000      13.87000000
        13.02000000      13.02000000      20.00000000      20.00000000      20.00000000      20.00000000      20.00000000      20.00000000      13.14000000      13.30000000      13.42000000      13.52000000      13.60000000      13.66000000      13.71000000      13.76000000      13.79000000      13.80000000      13.81000000      13.82000000      13.81000000      13.79000000      13.76000000      13.76000000      13.77000000
        12.96000000      12.97000000      12.99000000      20.00000000      20.00000000      20.00000000      20.00000000      20.00000000      13.07000000      13.23000000      13.35000000      13.45000000      13.52000000      13.57000000      13.60000000      13.62000000      13.64000000      13.63000000      13.63000000      13.65000000      13.66000000      13.65000000      13.64000000      13.65000000      13.66000000
        12.86000000      12.88000000      12.94000000      20.00000000      20.00000000      20.00000000      20.00000000      20.00000000      20.00000000      13.16000000      13.28000000      13.36000000      13.42000000      13.45000000      13.47000000      13.47000000      13.47000000      13.45000000      13.46000000      13.50000000      13.52000000      13.53000000      13.54000000      13.54000000      13.55000000
        12.71000000      12.76000000      12.84000000      12.95000000      20.00000000      20.00000000      20.00000000      20.00000000      20.00000000      13.09000000      13.18000000      13.25000000      13.28000000      13.29000000      13.28000000      13.27000000      13.29000000      13.32000000      13.35000000      13.39000000      13.40000000      13.42000000      13.44000000      13.45000000      13.45000000
        12.49000000      12.57000000      12.70000000      12.87000000      20.00000000      20.00000000      20.00000000      20.00000000      20.00000000      13.03000000      13.06000000      13.09000000      13.11000000      13.10000000      13.06000000      13.07000000      13.14000000      13.19000000      13.23000000      13.27000000      13.30000000      13.32000000      13.34000000      13.35000000      13.35000000
        12.16000000      12.31000000      12.47000000      12.71000000      20.00000000      20.00000000      20.00000000      20.00000000      20.00000000      12.92000000      12.86000000      12.86000000      12.88000000      12.89000000      12.88000000      12.92000000      12.98000000      13.05000000      13.10000000      13.15000000      13.19000000      13.22000000      13.23000000      13.24000000      13.25000000
        11.86000000      11.94000000      12.12000000      12.38000000      12.77000000      20.00000000      20.00000000      20.00000000      20.00000000      12.69000000      12.57000000      12.52000000      12.54000000      12.61000000      12.70000000      12.78000000      12.84000000      12.89000000      12.95000000      13.01000000      13.06000000      13.10000000      13.12000000      13.14000000      13.14000000
        11.53000000      11.55000000      11.64000000      11.78000000      12.01000000      12.30000000      12.43000000      12.40000000      12.29000000      12.16000000      12.10000000      12.11000000      12.21000000      12.35000000      12.49000000      12.61000000      12.69000000      12.74000000      12.80000000      12.85000000      12.91000000      12.96000000      13.00000000      13.01000000      13.02000000
        11.15000000      11.16000000      11.17000000      11.24000000      11.36000000      11.45000000      11.45000000      11.44000000      11.45000000      11.53000000      11.64000000      11.77000000      11.94000000      12.06000000      12.25000000      12.40000000      12.51000000      12.57000000      12.61000000      12.67000000      12.72000000      12.79000000      12.83000000      12.86000000      12.88000000
        10.70000000      10.70000000      10.72000000      10.74000000      10.76000000      10.80000000      10.82000000      10.87000000      10.93000000      11.03000000      11.21000000      11.35000000      11.53000000      11.70000000      11.91000000      12.11000000      12.26000000      12.36000000      12.41000000      12.47000000      12.53000000      12.59000000      12.65000000      12.70000000      12.73000000
        10.31000000      10.28000000      10.27000000      10.27000000      10.27000000      10.29000000      10.33000000      10.32000000      10.37000000      10.49000000      10.68000000      10.86000000      11.00000000      11.21000000      11.46000000      11.72000000      11.97000000      12.09000000      12.16000000      12.23000000      12.32000000      12.40000000      12.47000000      12.53000000      12.57000000
         9.87000000       9.82000000       9.82000000       9.82000000       9.81000000       9.77000000       9.68000000       9.64000000       9.66000000       9.84000000      10.06000000      10.34000000      10.55000000      10.75000000      11.03000000      11.29000000      11.60000000      11.78000000      11.86000000      11.96000000      12.08000000      12.20000000      12.28000000      12.34000000      12.38000000
         9.36000000       9.33000000       9.29000000       9.26000000       9.22000000       9.10000000       8.86000000       8.64000000       8.53000000       8.90000000       9.39000000       9.66000000       9.95000000      10.21000000      10.55000000      10.83000000      11.14000000      11.37000000      11.55000000      11.70000000      11.84000000      11.96000000      12.04000000      12.10000000      12.13000000
         8.82000000       8.81000000       8.73000000       8.60000000       8.43000000       8.15000000       7.87000000       7.42000000       3.87000000       7.56000000       8.23000000       8.77000000       9.19000000       9.60000000      10.01000000      10.32000000      10.65000000      10.95000000      11.19000000      11.41000000      11.56000000      11.69000000      11.76000000      11.80000000      11.81000000
         8.38000000       8.34000000       8.23000000       8.03000000       7.78000000       7.45000000       7.08000000       6.51000000       3.75000000       6.55000000       7.36000000       8.01000000       8.53000000       9.00000000       9.48000000       9.88000000      10.24000000      10.55000000      10.85000000      11.09000000      11.26000000      11.39000000      11.44000000      11.47000000      11.47000000
         7.99000000       7.89000000       7.76000000       7.56000000       7.31000000       6.96000000       6.52000000       5.94000000       3.70000000       5.90000000       6.55000000       7.34000000       7.91000000       8.39000000       8.94000000       9.40000000       9.78000000      10.09000000      10.39000000      10.65000000      10.76000000      10.97000000      11.06000000      11.10000000      11.12000000
         7.61000000       7.51000000       7.37000000       7.16000000       6.93000000       6.58000000       6.12000000       5.57000000       3.62000000       5.55000000       6.17000000       6.82000000       7.35000000       7.85000000       8.37000000       8.85000000       9.24000000       9.59000000       9.82000000      10.07000000      10.23000000      10.38000000      10.56000000      10.67000000      10.72000000
         7.28000000       7.17000000       7.04000000       6.86000000       6.62000000       6.26000000       5.80000000       5.30000000       3.50000000       5.30000000       5.90000000       6.45000000       6.95000000       7.42000000       7.92000000       8.36000000       8.78000000       9.10000000       9.40000000       9.62000000       9.81000000       9.96000000      10.12000000      10.23000000      10.26000000
         6.91000000       6.84000000       6.72000000       6.55000000       6.34000000       5.95000000       5.52000000       5.04000000       3.38000000       5.08000000       5.65000000       6.19000000       6.64000000       7.07000000       7.53000000       7.93000000       8.40000000       8.69000000       9.01000000       9.29000000       9.47000000       9.62000000       9.76000000       9.85000000       9.91000000
         6.45000000       6.46000000       6.39000000       6.22000000       6.00000000       5.65000000       5.22000000       4.78000000       3.28000000       4.86000000       5.44000000       5.95000000       6.42000000       6.83000000       7.26000000       7.68000000       8.08000000       8.43000000       8.70000000       8.97000000       9.16000000       9.31000000       9.45000000       9.57000000       9.60000000
         6.11000000       6.11000000       6.04000000       5.90000000       5.67000000       5.34000000       4.94000000       4.55000000       3.17000000       4.69000000       5.24000000       5.71000000       6.20000000       6.66000000       7.07000000       7.48000000       7.91000000       8.23000000       8.48000000       8.72000000       8.91000000       9.05000000       9.19000000       9.29000000       9.35000000
         5.82000000       5.81000000       5.74000000       5.59000000       5.37000000       5.10000000       4.70000000       4.35000000       3.05000000       4.55000000       5.08000000       5.52000000       5.98000000       6.48000000       6.93000000       7.32000000       7.76000000       8.06000000       8.31000000       8.53000000       8.72000000       8.86000000       8.98000000       9.08000000       9.14000000
         5.56000000       5.53000000       5.45000000       5.31000000       5.11000000       4.83000000       4.52000000       4.17000000       2.96000000       4.37000000       4.93000000       5.35000000       5.84000000       6.30000000       6.77000000       7.22000000       7.61000000       7.90000000       8.15000000       8.37000000       8.55000000       8.70000000       8.81000000       8.90000000       8.96000000
         5.34000000       5.30000000       5.21000000       5.06000000       4.88000000       4.63000000       4.33000000       4.01000000       2.86000000       4.23000000       4.74000000       5.21000000       5.73000000       6.20000000       6.66000000       7.10000000       7.48000000       7.77000000       8.01000000       8.23000000       8.41000000       8.56000000       8.67000000       8.75000000       8.81000000
         5.18000000       5.14000000       5.04000000       4.87000000       4.70000000       4.46000000       4.18000000       3.88000000       2.76000000       4.10000000       4.54000000       5.04000000       5.63000000       6.14000000       6.59000000       7.02000000       7.39000000       7.68000000       7.90000000       8.11000000       8.29000000       8.44000000       8.55000000       8.63000000       8.67000000
         5.03000000       4.99000000       4.87000000       4.72000000       4.55000000       4.32000000       4.09000000       3.79000000       2.67000000       3.97000000       4.40000000       4.87000000       5.48000000       6.03000000       6.54000000       6.95000000       7.32000000       7.60000000       7.81000000       8.01000000       8.19000000       8.34000000       8.44000000       8.52000000       8.57000000
         4.91000000       4.85000000       4.75000000       4.59000000       4.43000000       4.23000000       4.01000000       3.73000000       2.56000000       3.90000000       4.33000000       4.77000000       5.31000000       5.89000000       6.51000000       6.91000000       7.25000000       7.54000000       7.75000000       7.94000000       8.09000000       8.24000000       8.36000000       8.44000000       8.48000000
         4.82000000       4.76000000       4.64000000       4.49000000       4.34000000       4.18000000       3.97000000       3.67000000       2.46000000       3.83000000       4.28000000       4.73000000       5.21000000       5.76000000       6.40000000       6.82000000       7.20000000       7.50000000       7.71000000       7.89000000       8.04000000       8.17000000       8.28000000       8.36000000       8.41000000
         4.72000000       4.67000000       4.56000000       4.42000000       4.28000000       4.13000000       3.92000000       3.62000000       2.35000000       3.79000000       4.25000000       4.74000000       5.19000000       5.69000000       6.25000000       6.69000000       7.13000000       7.43000000       7.68000000       7.86000000       8.01000000       8.13000000       8.23000000       8.31000000       8.36000000
         4.64000000       4.59000000       4.49000000       4.37000000       4.25000000       4.09000000       3.88000000       3.60000000       2.25000000       3.76000000       4.25000000       4.75000000       5.21000000       5.65000000       6.13000000       6.58000000       7.03000000       7.40000000       7.65000000       7.84000000       7.99000000       8.11000000       8.20000000       8.28000000       8.32000000
         4.60000000       4.56000000       4.46000000       4.35000000       4.23000000       4.07000000       3.87000000       3.58000000       2.16000000       3.73000000       4.26000000       4.75000000       5.20000000       5.65000000       6.09000000       6.53000000       6.99000000       7.38000000       7.64000000       7.83000000       7.97000000       8.09000000       8.19000000       8.26000000       8.30000000
  botm  LAYERED
    INTERNAL  FACTOR  1.0
          -5.00000000      -5.00000000      -5.00000000      -5.00000000      -5.00000000      -5.00000000      -5.00000000      -5.00000000      -5.00000000      -5.00000000      -5.00000000      -5.00000000      -5.00000000      -5.00000000      -5.00000000      -5.00000000      -5.00000000      -5.00000000      -5.00000000      -5.00000000      -5.00000000      -5.00000000      -5.00000000      -5.00000000      -5.00000000
          -5.00000000      -5.00000000      -5.00000000      -5.00000000      -5.00000000      -5.00000000      -5.00000000      -5.00000000      -5.00000000      -5.00000000      -5.00000000      -5.00000000      -5.00000000      -5.00000000      -5.00000000      -5.00000000      -5.00000000      -5.00000000      -5.00000000      -5.00000000      -5.00000000      -5.00000000      -5.00000000      -5.00000000      -5.00000000
          -5.00000000      -5.00000000      -5.00000000      -5.00000000      -5.00000000      -5.00000000      -5.00000000      -5.00000000      -5.00000000      -5.00000000      -5.00000000      -5.00000000      -5.00000000      -5.00000000      -5.00000000      -5.00000000      -5.00000000      -5.00000000      -5.00000000      -5.00000000      -5.00000000      -5.00000000      -5.00000000      -5.00000000      -5.00000000
          -5.00000000      -5.00000000      -5.00000000      -5.00000000      -5.00000000      -5.00000000      -5.00000000      -5.00000000      -5.00000000      -5.00000000      -5.00000000      -5.00000000      -5.00000000      -5.00000000      -5.00000000      -5.00000000      -5.00000000      -5.00000000      -5.00000000      -5.00000000      -5.00000000      -5.00000000      -5.00000000      -5.00000000      -5.00000000
          -5.00000000      -5.00000000      -5.00000000      -5.00000000      -5.00000000      -5.00000000      -5.00000000      -5.00000000      -5.00000000      -5.00000000      -5.00000000      -5.00000000      -5.00000000      -5.00000000      -5.00000000      -5.00000000      -5.00000000      -5.00000000      -5.00000000      -5.00000000      -5.00000000      -5.00000000      -5.00000000      -5.00000000      -5.00000000
          -5.00000000      -5.00000000      -5.00000000      -5.00000000      -5.00000000      -5.00000000      -5.00000000      -5.00000000      -5.00000000      -5.00000000      -5.00000000      -5.00000000      -5.00000000      -5.00000000      -5.00000000      -5.00000000      -5.00000000      -5.00000000      -5.00000000      -5.00000000      -5.00000000      -5.00000000      -5.00000000      -5.00000000      -5.00000000
          -5.00000000      -5.00000000      -5.00000000      -5.00000000      -5.00000000      -5.00000000      -5.00000000      -5.00000000      -5.00000000      -5.00000000      -5.00000000      -5.00000000      -5.00000000      -5.00000000      -5.00000000      -5.00000000      -5.00000000      -5.00000000      -5.00000000      -5.00000000      -5.00000000      -5.00000000      -5.00000000      -5.00000000      -5.00000000
          -5.00000000      -5.00000000      -5.00000000      -5.00000000      -5.00000000      -5.00000000      -5.00000000      -5.00000000      -5.00000000      -5.00000000      -5.00000000      -5.00000000      -5.00000000      -5.00000000      -5.00000000      -5.00000000      -5.00000000      -5.00000000      -5.00000000      -5.00000000      -5.00000000      -5.00000000      -5.00000000      -5.00000000      -5.00000000
          -5.00000000      -5.00000000      -5.00000000      -5.00000000      -5.00000000      -5.00000000      -5.00000000      -5.00000000      -5.00000000      -5.00000000      -5.00000000      -5.00000000      -5.00000000      -5.00000000      -5.00000000      -5.00000000      -5.00000000      -5.00000000      -5.00000000      -5.00000000      -5.00000000      -5.00000000      -5.00000000      -5.00000000      -5.00000000
          -5.00000000      -5.00000000      -5.00000000      -5.00000000      -5.00000000      -5.00000000      -5.00000000      -5.00000000      -5.00000000      -5.00000000      -5.00000000      -5.00000000      -5.00000000      -5.00000000      -5.00000000      -5.00000000      -5.00000000      -5.00000000      -5.00000000      -5.00000000      -5.00000000      -5.00000000      -5.00000000      -5.00000000      -5.00000000
          -5.00000000      -5.00000000      -5.00000000      -5.00000000      -5.00000000      -5.00000000      -5.00000000      -5.00000000      -5.00000000      -5.00000000      -5.00000000      -5.00000000      -5.00000000      -5.00000000      -5.00000000      -5.00000000      -5.00000000      -5.00000000      -5.00000000      -5.00000000      -5.00000000      -5.00000000      -5.00000000      -5.00000000      -5.00000000
          -5.00000000      -5.00000000      -5.00000000      -5.00000000      -5.00000000      -5.00000000      -5.00000000      -5.00000000      -5.00000000      -5.00000000      -5.00000000      -5.00000000      -5.00000000      -5.00000000      -5.00000000      -5.00000000      -5.00000000      -5.00000000      -5.00000000      -5.00000000      -5.00000000      -5.00000000      -5.00000000      -5.00000000      -5.00000000
          -5.00000000      -5.00000000      -5.00000000      -5.00000000      -5.00000000      -5.00000000      -5.00000000      -5.00000000      -5.00000000      -5.00000000      -5.00000000      -5.00000000      -5.00000000      -5.00000000      -5.00000000      -5.00000000      -5.00000000      -5.00000000      -5.00000000      -5.00000000      -5.00000000      -5.00000000      -5.00000000      -5.00000000      -5.00000000
          -5.00000000      -5.00000000      -5.00000000      -5.00000000      -5.00000000      -5.00000000      -5.00000000      -5.00000000      -5.00000000      -5.00000000      -5.00000000      -5.00000000      -5.00000000      -5.00000000      -5.00000000      -5.00000000      -5.00000000      -5.00000000      -5.00000000      -5.00000000      -5.00000000      -5.00000000      -5.00000000      -5.00000000      -5.00000000
          -5.00000000      -5.00000000      -5.00000000      -5.00000000      -5.00000000      -5.00000000      -5.00000000      -5.00000000      -5.00000000      -5.00000000      -5.00000000      -5.00000000      -5.00000000      -5.00000000      -5.00000000      -5.00000000      -5.00000000      -5.00000000      -5.00000000      -5.00000000      -5.00000000      -5.00000000      -5.00000000      -5.00000000      -5.00000000
          -5.00000000      -5.00000000      -5.00000000      -5.00000000      -5.00000000      -5.00000000      -5.00000000      -5.00000000      -5.00000000      -5.00000000      -5.00000000      -5.00000000      -5.00000000      -5.00000000      -5.00000000      -5.00000000      -5.00000000      -5.00000000      -5.00000000      -5.00000000      -5.00000000      -5.00000000      -5.00000000      -5.00000000      -5.00000000
          -5.00000000      -5.00000000      -5.00000000      -5.00000000      -5.00000000      -5.00000000      -5.00000000      -5.00000000      -5.00000000      -5.00000000      -5.00000000      -5.00000000      -5.00000000      -5.00000000      -5.00000000      -5.00000000      -5.00000000      -5.00000000      -5.00000000      -5.00000000      -5.00000000      -5.00000000      -5.00000000      -5.00000000      -5.00000000
          -5.00000000      -5.00000000      -5.00000000      -5.00000000      -5.00000000      -5.00000000      -5.00000000      -5.00000000      -5.00000000      -5.00000000      -5.00000000      -5.00000000      -5.00000000      -5.00000000      -5.00000000      -5.00000000      -5.00000000      -5.00000000      -5.00000000      -5.00000000      -5.00000000      -5.00000000      -5.00000000      -5.00000000      -5.00000000
          -5.00000000      -5.00000000      -5.00000000      -5.00000000      -5.00000000      -5.00000000      -5.00000000      -5.00000000      -5.00000000      -5.00000000      -5.00000000      -5.00000000      -5.00000000      -5.00000000      -5.00000000      -5.00000000      -5.00000000      -5.00000000      -5.00000000      -5.00000000      -5.00000000      -5.00000000      -5.00000000      -5.00000000      -5.00000000
          -5.00000000      -5.00000000      -5.00000000      -5.00000000      -5.00000000      -5.00000000      -5.00000000      -5.00000000      -5.00000000      -5.00000000      -5.00000000      -5.00000000      -5.00000000      -5.00000000      -5.00000000      -5.00000000      -5.00000000      -5.00000000      -5.00000000      -5.00000000      -5.00000000      -5.00000000      -5.00000000      -5.00000000      -5.00000000
          -5.00000000      -5.00000000      -5.00000000      -5.00000000      -5.00000000      -5.00000000      -5.00000000      -5.00000000      -5.00000000      -5.00000000      -5.00000000      -5.00000000      -5.00000000      -5.00000000      -5.00000000      -5.00000000      -5.00000000      -5.00000000      -5.00000000      -5.00000000      -5.00000000      -5.00000000      -5.00000000      -5.00000000      -5.00000000
          -5.00000000      -5.00000000      -5.00000000      -5.00000000      -5.00000000      -5.00000000      -5.00000000      -5.00000000      -5.00000000      -5.00000000      -5.00000000      -5.00000000      -5.00000000      -5.00000000      -5.00000000      -5.00000000      -5.00000000      -5.00000000      -5.00000000      -5.00000000      -5.00000000      -5.00000000      -5.00000000      -5.00000000      -5.00000000
          -5.00000000      -5.00000000      -5.00000000      -5.00000000      -5.00000000      -5.00000000      -5.00000000      -5.00000000      -5.00000000      -5.00000000      -5.00000000      -5.00000000      -5.00000000      -5.00000000      -5.00000000      -5.00000000      -5.00000000      -5.00000000      -5.00000000      -5.00000000      -5.00000000      -5.00000000      -5.00000000      -5.00000000      -5.00000000
          -5.00000000      -5.00000000      -5.00000000      -5.00000000      -5.00000000      -5.00000000      -5.00000000      -5.00000000      -5.00000000      -5.00000000      -5.00000000      -5.00000000      -5.00000000      -5.00000000      -5.00000000      -5.00000000      -5.00000000      -5.00000000      -5.00000000      -5.00000000      -5.00000000      -5.00000000      -5.00000000      -5.00000000      -5.00000000
          -5.00000000      -5.00000000      -5.00000000      -5.00000000      -5.00000000      -5.00000000      -5.00000000      -5.00000000      -5.00000000      -5.00000000      -5.00000000      -5.00000000      -5.00000000      -5.00000000      -5.00000000      -5.00000000      -5.00000000      -5.00000000      -5.00000000      -5.00000000      -5.00000000      -5.00000000      -5.00000000      -5.00000000      -5.00000000
          -5.00000000      -5.00000000      -5.00000000      -5.00000000      -5.00000000      -5.00000000      -5.00000000      -5.00000000      -5.00000000      -5.00000000      -5.00000000      -5.00000000      -5.00000000      -5.00000000      -5.00000000      -5.00000000      -5.00000000      -5.00000000      -5.00000000      -5.00000000      -5.00000000      -5.00000000      -5.00000000      -5.00000000      -5.00000000
          -5.00000000      -5.00000000      -5.00000000      -5.00000000      -5.00000000      -5.00000000      -5.00000000      -5.00000000      -5.00000000      -5.00000000      -5.00000000      -5.00000000      -5.00000000      -5.00000000      -5.00000000      -5.00000000      -5.00000000      -5.00000000      -5.00000000      -5.00000000      -5.00000000      -5.00000000      -5.00000000      -5.00000000      -5.00000000
          -5.00000000      -5.00000000      -5.00000000      -5.00000000      -5.00000000      -5.00000000      -5.00000000      -5.00000000      -5.00000000      -5.00000000      -5.00000000      -5.00000000      -5.00000000      -5.00000000      -5.00000000      -5.00000000      -5.00000000      -5.00000000      -5.00000000      -5.00000000      -5.00000000      -5.00000000      -5.00000000      -5.00000000      -5.00000000
          -5.00000000      -5.00000000      -5.00000000      -5.00000000      -5.00000000      -5.00000000      -5.00000000      -5.00000000      -5.00000000      -5.00000000      -5.00000000      -5.00000000      -5.00000000      -5.00000000      -5.00000000      -5.00000000      -5.00000000      -5.00000000      -5.00000000      -5.00000000      -5.00000000      -5.00000000      -5.00000000      -5.00000000      -5.00000000