BEGIN options
END options

BEGIN dimensions
  MAXBOUND  65
END dimensions

BEGIN period  1
  1 4 4      -4.00000000       0.00699889       2.00000000
  1 4 5      -4.00000000       0.00699889       2.00000000
  1 4 6      -4.00000000       0.00699889       2.00000000
  1 4 7      -4.00000000       0.00699889       2.00000000
  1 5 3      -4.00000000       0.00699889       2.00000000
  1 5 4      -4.00000000       0.00699889       2.00000000
  1 5 5      -4.00000000       0.00699889       2.00000000
  1 5 6      -4.00000000       0.00699889       2.00000000
  1 5 7      -4.00000000       0.00699889       2.00000000
  1 6 3      -4.00000000       0.00699889       2.00000000
  1 6 4      -4.00000000       0.00699889       2.00000000
  1 6 5      -4.00000000       0.00699889       2.00000000
  1 6 6      -4.00000000       0.00699889       2.00000000
  1 6 7      -4.00000000       0.00699889       2.00000000
  1 7 3      -4.00000000       0.00699889       2.00000000
  1 7 4      -4.00000000       0.00699889       2.00000000
  1 7 5      -4.00000000       0.00699889       2.00000000
  1 7 6      -4.00000000       0.00699889       2.00000000
  1 7 7      -4.00000000       0.00699889       2.00000000
  1 8 3      -4.00000000       0.00699889       2.00000000
  1 8 4      -4.00000000       0.00699889       2.00000000
  1 8 5      -4.00000000       0.00699889       2.00000000
  1 8 6      -4.00000000       0.00699889       2.00000000
  1 8 7      -4.00000000       0.00699889       2.00000000
  1 9 3      -4.00000000       0.00699889       2.00000000
  1 9 4      -4.00000000       0.00699889       2.00000000
  1 9 5      -4.00000000       0.00699889       2.00000000
  1 9 6      -4.00000000       0.00699889       2.00000000
  1 9 7      -4.00000000       0.00699889       2.00000000
  1 10 3      -4.00000000       0.00699889       2.00000000
  1 10 4      -4.00000000       0.00699889       2.00000000
  1 10 5      -4.00000000       0.00699889       2.00000000
  1 10 6      -4.00000000       0.00699889       2.00000000
  1 10 7      -4.00000000       0.00699889       2.00000000
  1 10 8      -4.00000000       0.00699889       2.00000000
  1 11 4      -4.00000000       0.00699889       2.00000000
  1 11 5      -4.00000000       0.00699889       2.00000000
  1 11 6      -4.00000000       0.00699889       2.00000000
  1 11 7      -4.00000000       0.00699889       2.00000000
  1 11 8      -4.00000000       0.00699889       2.00000000
  1 12 4      -4.00000000       0.00699889       2.00000000
  1 12 5      -4.00000000       0.00699889       2.00000000
  1 12 6      -4.00000000       0.00699889       2.00000000
  1 12 7      -4.00000000       0.00699889       2.00000000
  1 12 8      -4.00000000       0.00699889       2.00000000
  1 12 9      -4.00000000       0.00699889       2.00000000
  1 13 5      -4.00000000       0.00699889       2.00000000
  1 13 6      -4.00000000       0.00699889       2.00000000
  1 13 7      -4.00000000       0.00699889       2.00000000
  1 13 8      -4.00000000       0.00699889       2.00000000
  1 13 9      -4.00000000       0.00699889       2.00000000
  1 14 5      -4.00000000       0.00699889       2.00000000
  1 14 6      -4.00000000       0.00699889       2.00000000
  1 14 7      -4.00000000       0.00699889       2.00000000
  1 14 8      -4.00000000       0.00699889       2.00000000
  1 14 9      -4.00000000       0.00699889       2.00000000
  1 15 5      -4.00000000       0.00699889       2.00000000
  1 15 6      -4.00000000       0.00699889       2.00000000
  1 15 7      -4.00000000       0.00699889       2.00000000
  1 15 8      -4.00000000       0.00699889       2.00000000
  1 15 9      -4.00000000       0.00699889       2.00000000
  1 16 6      -4.00000000       0.00699889       2.00000000
  1 16 7      -4.00000000       0.00699889       2.00000000
  1 16 8      -4.00000000       0.00699889       2.00000000
  1 16 9      -4.00000000       0.00699889       2.00000000
END period  1

BEGIN period  2
  1 4 4      -4.00000000  3.95007933E-05       2.00000000
  1 4 5      -4.00000000  3.95007933E-05       2.00000000
  1 4 6      -4.00000000  3.95007933E-05       2.00000000
  1 4 7      -4.00000000  3.95007933E-05       2.00000000
  1 5 3      -4.00000000  3.95007933E-05       2.00000000
  1 5 4      -4.00000000  3.95007933E-05       2.00000000
  1 5 5      -4.00000000  3.95007933E-05       2.00000000
  1 5 6      -4.00000000  3.95007933E-05       2.00000000
  1 5 7      -4.00000000  3.95007933E-05       2.00000000
  1 6 3      -4.00000000  3.95007933E-05       2.00000000
  1 6 4      -4.00000000  3.95007933E-05       2.00000000
  1 6 5      -4.00000000  3.95007933E-05       2.00000000
  1 6 6      -4.00000000  3.95007933E-05       2.00000000
  1 6 7      -4.00000000  3.95007933E-05       2.00000000
  1 7 3      -4.00000000  3.95007933E-05       2.00000000
  1 7 4      -4.00000000  3.95007933E-05       2.00000000
  1 7 5      -4.00000000  3.95007933E-05       2.00000000
  1 7 6      -4.00000000  3.95007933E-05       2.00000000
  1 7 7      -4.00000000  3.95007933E-05       2.00000000
  1 8 3      -4.00000000  3.95007933E-05       2.00000000
  1 8 4      -4.00000000  3.95007933E-05       2.00000000
  1 8 5      -4.00000000  3.95007933E-05       2.00000000
  1 8 6      -4.00000000  3.95007933E-05       2.00000000
  1 8 7      -4.00000000  3.95007933E-05       2.00000000
  1 9 3      -4.00000000  3.95007933E-05       2.00000000
  1 9 4      -4.00000000  3.95007933E-05       2.00000000
  1 9 5      -4.00000000  3.95007933E-05       2.00000000
  1 9 6      -4.00000000  3.95007933E-05       2.00000000
  1 9 7      -4.00000000  3.95007933E-05       2.00000000
  1 10 3      -4.00000000  3.95007933E-05       2.00000000
  1 10 4      -4.00000000  3.95007933E-05       2.00000000
  1 10 5      -4.00000000  3.95007933E-05       2.00000000
  1 10 6      -4.00000000  3.95007933E-05       2.00000000
  1 10 7      -4.00000000  3.95007933E-05       2.00000000
  1 10 8      -4.00000000  3.95007933E-05       2.00000000
  1 11 4      -4.00000000  3.95007933E-05       2.00000000
  1 11 5      -4.00000000  3.95007933E-05       2.00000000
  1 11 6      -4.00000000  3.95007933E-05       2.00000000
  1 11 7      -4.00000000  3.95007933E-05       2.00000000
  1 11 8      -4.00000000  3.95007933E-05       2.00000000
  1 12 4      -4.00000000  3.95007933E-05       2.00000000
  1 12 5      -4.00000000  3.95007933E-05       2.00000000
  1 12 6      -4.00000000  3.95007933E-05       2.00000000
  1 12 7      -4.00000000  3.95007933E-05       2.00000000
  1 12 8      -4.00000000  3.95007933E-05       2.00000000
  1 12 9      -4.00000000  3.95007933E-05       2.00000000
  1 13 5      -4.00000000  3.95007933E-05       2.00000000
  1 13 6      -4.00000000  3.95007933E-05       2.00000000
  1 13 7      -4.00000000  3.95007933E-05       2.00000000
  1 13 8      -4.00000000  3.95007933E-05       2.00000000
  1 13 9      -4.00000000  3.95007933E-05       2.00000000
  1 14 5      -4.00000000  3.95007933E-05       2.00000000
  1 14 6      -4.00000000  3.95007933E-05       2.00000000
  1 14 7      -4.00000000  3.95007933E-05       2.00000000
  1 14 8      -4.00000000  3.95007933E-05       2.00000000
  1 14 9      -4.00000000  3.95007933E-05       2.00000000
  1 15 5      -4.00000000  3.95007933E-05       2.00000000
  1 15 6      -4.00000000  3.95007933E-05       2.00000000
  1 15 7      -4.00000000  3.95007933E-05       2.00000000
  1 15 8      -4.00000000  3.95007933E-05       2.00000000
  1 15 9      -4.00000000  3.95007933E-05       2.00000000
  1 16 6      -4.00000000  3.95007933E-05       2.00000000
  1 16 7      -4.00000000  3.95007933E-05       2.00000000
  1 16 8      -4.00000000  3.95007933E-05       2.00000000
  1 16 9      -4.00000000  3.95007933E-05       2.00000000
END period  2

BEGIN period  3
  1 4 4      -4.00000000  4.14423834E-04       2.00000000
  1 4 5      -4.00000000  4.14423834E-04       2.00000000
  1 4 6      -4.00000000  4.14423834E-04       2.00000000
  1 4 7      -4.00000000  4.14423834E-04       2.00000000
  1 5 3      -4.00000000  4.14423834E-04       2.00000000
  1 5 4      -4.00000000  4.14423834E-04       2.00000000
  1 5 5      -4.00000000  4.14423834E-04       2.00000000
  1 5 6      -4.00000000  4.14423834E-04       2.00000000
  1 5 7      -4.00000000  4.14423834E-04       2.00000000
  1 6 3      -4.00000000  4.14423834E-04       2.00000000
  1 6 4      -4.00000000  4.14423834E-04       2.00000000
  1 6 5      -4.00000000  4.14423834E-04       2.00000000
  1 6 6      -4.00000000  4.14423834E-04       2.00000000
  1 6 7      -4.00000000  4.14423834E-04       2.00000000
  1 7 3      -4.00000000  4.14423834E-04       2.00000000
  1 7 4      -4.00000000  4.14423834E-04       2.00000000
  1 7 5      -4.00000000  4.14423834E-04       2.00000000
  1 7 6      -4.00000000  4.14423834E-04       2.00000000
  1 7 7      -4.00000000  4.14423834E-04       2.00000000
  1 8 3      -4.00000000  4.14423834E-04       2.00000000
  1 8 4      -4.00000000  4.14423834E-04       2.00000000
  1 8 5      -4.00000000  4.14423834E-04       2.00000000
  1 8 6      -4.00000000  4.14423834E-04       2.00000000
  1 8 7      -4.00000000  4.14423834E-04       2.00000000
  1 9 3      -4.00000000  4.14423834E-04       2.00000000
  1 9 4      -4.00000000  4.14423834E-04       2.00000000
  1 9 5      -4.00000000  4.14423834E-04       2.00000000
  1 9 6      -4.00000000  4.14423834E-04       2.00000000
  1 9 7      -4.00000000  4.14423834E-04       2.00000000
  1 10 3      -4.00000000  4.14423834E-04       2.00000000
  1 10 4      -4.00000000  4.14423834E-04       2.00000000
  1 10 5      -4.00000000  4.14423834E-04       2.00000000
  1 10 6      -4.00000000  4.14423834E-04       2.00000000
  1 10 7      -4.00000000  4.14423834E-04       2.00000000
  1 10 8      -4.00000000  4.14423834E-04       2.00000000
  1 11 4      -4.00000000  4.14423834E-04       2.00000000
  1 11 5      -4.00000000  4.14423834E-04       2.00000000
  1 11 6      -4.00000000  4.14423834E-04       2.00000000
  1 11 7      -4.00000000  4.14423834E-04       2.00000000
  1 11 8      -4.00000000  4.14423834E-04       2.00000000
  1 12 4      -4.00000000  4.14423834E-04       2.00000000
  1 12 5      -4.00000000  4.14423834E-04       2.00000000
  1 12 6      -4.00000000  4.14423834E-04       2.00000000
  1 12 7      -4.00000000  4.14423834E-04       2.00000000
  1 12 8      -4.00000000  4.14423834E-04       2.00000000
  1 12 9      -4.00000000  4.14423834E-04       2.00000000
  1 13 5      -4.00000000  4.14423834E-04       2.00000000
  1 13 6      -4.00000000  4.14423834E-04       2.00000000
  1 13 7      -4.00000000  4.14423834E-04       2.00000000
  1 13 8      -4.00000000  4.14423834E-04       2.00000000
  1 13 9      -4.00000000  4.14423834E-04       2.00000000
  1 14 5      -4.00000000  4.14423834E-04       2.00000000
  1 14 6      -4.00000000  4.14423834E-04       2.00000000
  1 14 7      -4.00000000  4.14423834E-04       2.00000000
  1 14 8      -4.00000000  4.14423834E-04       2.00000000
  1 14 9      -4.00000000  4.14423834E-04       2.00000000
  1 15 5      -4.00000000  4.14423834E-04       2.00000000
  1 15 6      -4.00000000  4.14423834E-04       2.00000000
  1 15 7      -4.00000000  4.14423834E-04       2.00000000
  1 15 8      -4.00000000  4.14423834E-04       2.00000000
  1 15 9      -4.00000000  4.14423834E-04       2.00000000
  1 16 6      -4.00000000  4.14423834E-04       2.00000000
  1 16 7      -4.00000000  4.14423834E-04       2.00000000
  1 16 8      -4.00000000  4.14423834E-04       2.00000000
  1 16 9      -4.00000000  4.14423834E-04       2.00000000
END period  3

BEGIN period  4
  1 4 4      -4.00000000       0.00188064       2.00000000
  1 4 5      -4.00000000       0.00188064       2.00000000
  1 4 6      -4.00000000       0.00188064       2.00000000
  1 4 7      -4.00000000       0.00188064       2.00000000
  1 5 3      -4.00000000       0.00188064       2.00000000
  1 5 4      -4.00000000       0.00188064       2.00000000
  1 5 5      -4.00000000       0.00188064       2.00000000
  1 5 6      -4.00000000       0.00188064       2.00000000
  1 5 7      -4.00000000       0.00188064       2.00000000
  1 6 3      -4.00000000       0.00188064       2.00000000
  1 6 4      -4.00000000       0.00188064       2.00000000
  1 6 5      -4.00000000       0.00188064       2.00000000
  1 6 6      -4.00000000       0.00188064       2.00000000
  1 6 7      -4.00000000       0.00188064       2.00000000
  1 7 3      -4.00000000       0.00188064       2.00000000
  1 7 4      -4.00000000       0.00188064       2.00000000
  1 7 5      -4.00000000       0.00188064       2.00000000
  1 7 6      -4.00000000       0.00188064       2.00000000
  1 7 7      -4.00000000       0.00188064       2.00000000
  1 8 3      -4.00000000       0.00188064       2.00000000
  1 8 4      -4.00000000       0.00188064       2.00000000
  1 8 5      -4.00000000       0.00188064       2.00000000
  1 8 6      -4.00000000       0.00188064       2.00000000
  1 8 7      -4.00000000       0.00188064       2.00000000
  1 9 3      -4.00000000       0.00188064       2.00000000
  1 9 4      -4.00000000       0.00188064       2.00000000
  1 9 5      -4.00000000       0.00188064       2.00000000
  1 9 6      -4.00000000       0.00188064       2.00000000
  1 9 7      -4.00000000       0.00188064       2.00000000
  1 10 3      -4.00000000       0.00188064       2.00000000
  1 10 4      -4.00000000       0.00188064       2.00000000
  1 10 5      -4.00000000       0.00188064       2.00000000
  1 10 6      -4.00000000       0.00188064       2.00000000
  1 10 7      -4.00000000       0.00188064       2.00000000
  1 10 8      -4.00000000       0.00188064       2.00000000
  1 11 4      -4.00000000       0.00188064       2.00000000
  1 11 5      -4.00000000       0.00188064       2.00000000
  1 11 6      -4.00000000       0.00188064       2.00000000
  1 11 7      -4.00000000       0.00188064       2.00000000
  1 11 8      -4.00000000       0.00188064       2.00000000
  1 12 4      -4.00000000       0.00188064       2.00000000
  1 12 5      -4.00000000       0.00188064       2.00000000
  1 12 6      -4.00000000       0.00188064       2.00000000
  1 12 7      -4.00000000       0.00188064       2.00000000
  1 12 8      -4.00000000       0.00188064       2.00000000
  1 12 9      -4.00000000       0.00188064       2.00000000
  1 13 5      -4.00000000       0.00188064       2.00000000
  1 13 6      -4.00000000       0.00188064       2.00000000
  1 13 7      -4.00000000       0.00188064       2.00000000
  1 13 8      -4.00000000       0.00188064       2.00000000
  1 13 9      -4.00000000       0.00188064       2.00000000
  1 14 5      -4.00000000       0.00188064       2.00000000
  1 14 6      -4.00000000       0.00188064       2.00000000
  1 14 7      -4.00000000       0.00188064       2.00000000
  1 14 8      -4.00000000       0.00188064       2.00000000
  1 14 9      -4.00000000       0.00188064       2.00000000
  1 15 5      -4.00000000       0.00188064       2.00000000
  1 15 6      -4.00000000       0.00188064       2.00000000
  1 15 7      -4.00000000       0.00188064       2.00000000
  1 15 8      -4.00000000       0.00188064       2.00000000
  1 15 9      -4.00000000       0.00188064       2.00000000
  1 16 6      -4.00000000       0.00188064       2.00000000
  1 16 7      -4.00000000       0.00188064       2.00000000
  1 16 8      -4.00000000       0.00188064       2.00000000
  1 16 9      -4.00000000       0.00188064       2.00000000
END period  4

BEGIN period  5
  1 4 4      -4.00000000       0.00726632       2.00000000
  1 4 5      -4.00000000       0.00726632       2.00000000
  1 4 6      -4.00000000       0.00726632       2.00000000
  1 4 7      -4.00000000       0.00726632       2.00000000
  1 5 3      -4.00000000       0.00726632       2.00000000
  1 5 4      -4.00000000       0.00726632       2.00000000
  1 5 5      -4.00000000       0.00726632       2.00000000
  1 5 6      -4.00000000       0.00726632       2.00000000
  1 5 7      -4.00000000       0.00726632       2.00000000
  1 6 3      -4.00000000       0.00726632       2.00000000
  1 6 4      -4.00000000       0.00726632       2.00000000
  1 6 5      -4.00000000       0.00726632       2.00000000
  1 6 6      -4.00000000       0.00726632       2.00000000
  1 6 7      -4.00000000       0.00726632       2.00000000
  1 7 3      -4.00000000       0.00726632       2.00000000
  1 7 4      -4.00000000       0.00726632       2.00000000
  1 7 5      -4.00000000       0.00726632       2.00000000
  1 7 6      -4.00000000       0.00726632       2.00000000
  1 7 7      -4.00000000       0.00726632       2.00000000
  1 8 3      -4.00000000       0.00726632       2.00000000
  1 8 4      -4.00000000       0.00726632       2.00000000
  1 8 5      -4.00000000       0.00726632       2.00000000
  1 8 6      -4.00000000       0.00726632       2.00000000
  1 8 7      -4.00000000       0.00726632       2.00000000
  1 9 3      -4.00000000       0.00726632       2.00000000
  1 9 4      -4.00000000       0.00726632       2.00000000
  1 9 5      -4.00000000       0.00726632       2.00000000
  1 9 6      -4.00000000       0.00726632       2.00000000
  1 9 7      -4.00000000       0.00726632       2.00000000
  1 10 3      -4.00000000       0.00726632       2.00000000
  1 10 4      -4.00000000       0.00726632       2.00000000
  1 10 5      -4.00000000       0.00726632       2.00000000
  1 10 6      -4.00000000       0.00726632       2.00000000
  1 10 7      -4.00000000       0.00726632       2.00000000
  1 10 8      -4.00000000       0.00726632       2.00000000
  1 11 4      -4.00000000       0.00726632       2.00000000
  1 11 5      -4.00000000       0.00726632       2.00000000
  1 11 6      -4.00000000       0.00726632       2.00000000
  1 11 7      -4.00000000       0.00726632       2.00000000
  1 11 8      -4.00000000       0.00726632       2.00000000
  1 12 4      -4.00000000       0.00726632       2.00000000
  1 12 5      -4.00000000       0.00726632       2.00000000
  1 12 6      -4.00000000       0.00726632       2.00000000
  1 12 7      -4.00000000       0.00726632       2.00000000
  1 12 8      -4.00000000       0.00726632       2.00000000
  1 12 9      -4.00000000       0.00726632       2.00000000
  1 13 5      -4.00000000       0.00726632       2.00000000
  1 13 6      -4.00000000       0.00726632       2.00000000
  1 13 7      -4.00000000       0.00726632       2.00000000
  1 13 8      -4.00000000       0.00726632       2.00000000
  1 13 9      -4.00000000       0.00726632       2.00000000
  1 14 5      -4.00000000       0.00726632       2.00000000
  1 14 6      -4.00000000       0.00726632       2.00000000
  1 14 7      -4.00000000       0.00726632       2.00000000
  1 14 8      -4.00000000       0.00726632       2.00000000
  1 14 9      -4.00000000       0.00726632       2.00000000
  1 15 5      -4.00000000       0.00726632       2.00000000
  1 15 6      -4.00000000       0.00726632       2.00000000
  1 15 7      -4.00000000       0.00726632       2.00000000
  1 15 8      -4.00000000       0.00726632       2.00000000
  1 15 9      -4.00000000       0.00726632       2.00000000
  1 16 6      -4.00000000       0.00726632       2.00000000
  1 16 7      -4.00000000       0.00726632       2.00000000
  1 16 8      -4.00000000       0.00726632       2.00000000
  1 16 9      -4.00000000       0.00726632       2.00000000
END period  5

BEGIN period  6
  1 4 4      -4.00000000       0.01603149       2.00000000
  1 4 5      -4.00000000       0.01603149       2.00000000
  1 4 6      -4.00000000       0.01603149       2.00000000
  1 4 7      -4.00000000       0.01603149       2.00000000
  1 5 3      -4.00000000       0.01603149       2.00000000
  1 5 4      -4.00000000       0.01603149       2.00000000
  1 5 5      -4.00000000       0.01603149       2.00000000
  1 5 6      -4.00000000       0.01603149       2.00000000
  1 5 7      -4.00000000       0.01603149       2.00000000
  1 6 3      -4.00000000       0.01603149       2.00000000
  1 6 4      -4.00000000       0.01603149       2.00000000
  1 6 5      -4.00000000       0.01603149       2.00000000
  1 6 6      -4.00000000       0.01603149       2.00000000
  1 6 7      -4.00000000       0.01603149       2.00000000
  1 7 3      -4.00000000       0.01603149       2.00000000
  1 7 4      -4.00000000       0.01603149       2.00000000
  1 7 5      -4.00000000       0.01603149       2.00000000
  1 7 6      -4.00000000       0.01603149       2.00000000
  1 7 7      -4.00000000       0.01603149       2.00000000
  1 8 3      -4.00000000       0.01603149       2.00000000
  1 8 4      -4.00000000       0.01603149       2.00000000
  1 8 5      -4.00000000       0.01603149       2.00000000
  1 8 6      -4.00000000       0.01603149       2.00000000
  1 8 7      -4.00000000       0.01603149       2.00000000
  1 9 3      -4.00000000       0.01603149       2.00000000
  1 9 4      -4.00000000       0.01603149       2.00000000
  1 9 5      -4.00000000       0.01603149       2.00000000
  1 9 6      -4.00000000       0.01603149       2.00000000
  1 9 7      -4.00000000       0.01603149       2.00000000
  1 10 3      -4.00000000       0.01603149       2.00000000
  1 10 4      -4.00000000       0.01603149       2.00000000
  1 10 5      -4.00000000       0.01603149       2.00000000
  1 10 6      -4.00000000       0.01603149       2.00000000
  1 10 7      -4.00000000       0.01603149       2.00000000
  1 10 8      -4.00000000       0.01603149       2.00000000
  1 11 4      -4.00000000       0.01603149       2.00000000
  1 11 5      -4.00000000       0.01603149       2.00000000
  1 11 6      -4.00000000       0.01603149       2.00000000
  1 11 7      -4.00000000       0.01603149       2.00000000
  1 11 8      -4.00000000       0.01603149       2.00000000
  1 12 4      -4.00000000       0.01603149       2.00000000
  1 12 5      -4.00000000       0.01603149       2.00000000
  1 12 6      -4.00000000       0.01603149       2.00000000
  1 12 7      -4.00000000       0.01603149       2.00000000
  1 12 8      -4.00000000       0.01603149       2.00000000
  1 12 9      -4.00000000       0.01603149       2.00000000
  1 13 5      -4.00000000       0.01603149       2.00000000
  1 13 6      -4.00000000       0.01603149       2.00000000
  1 13 7      -4.00000000       0.01603149       2.00000000
  1 13 8      -4.00000000       0.01603149       2.00000000
  1 13 9      -4.00000000       0.01603149       2.00000000
  1 14 5      -4.00000000       0.01603149       2.00000000
  1 14 6      -4.00000000       0.01603149       2.00000000
  1 14 7      -4.00000000       0.01603149       2.00000000
  1 14 8      -4.00000000       0.01603149       2.00000000
  1 14 9      -4.00000000       0.01603149       2.00000000
  1 15 5      -4.00000000       0.01603149       2.00000000
  1 15 6      -4.00000000       0.01603149       2.00000000
  1 15 7      -4.00000000       0.01603149       2.00000000
  1 15 8      -4.00000000       0.01603149       2.00000000
  1 15 9      -4.00000000       0.01603149       2.00000000
  1 16 6      -4.00000000       0.01603149       2.00000000
  1 16 7      -4.00000000       0.01603149       2.00000000
  1 16 8      -4.00000000       0.01603149       2.00000000
  1 16 9      -4.00000000       0.01603149       2.00000000
END period  6

BEGIN period  7
  1 4 4      -4.00000000       0.02626994       2.00000000
  1 4 5      -4.00000000       0.02626994       2.00000000
  1 4 6      -4.00000000       0.02626994       2.00000000
  1 4 7      -4.00000000       0.02626994       2.00000000
  1 5 3      -4.00000000       0.02626994       2.00000000
  1 5 4      -4.00000000       0.02626994       2.00000000
  1 5 5      -4.00000000       0.02626994       2.00000000
  1 5 6      -4.00000000       0.02626994       2.00000000
  1 5 7      -4.00000000       0.02626994       2.00000000
  1 6 3      -4.00000000       0.02626994       2.00000000
  1 6 4      -4.00000000       0.02626994       2.00000000
  1 6 5      -4.00000000       0.02626994       2.00000000
  1 6 6      -4.00000000       0.02626994       2.00000000
  1 6 7      -4.00000000       0.02626994       2.00000000
  1 7 3      -4.00000000       0.02626994       2.00000000
  1 7 4      -4.00000000       0.02626994       2.00000000
  1 7 5      -4.00000000       0.02626994       2.00000000
  1 7 6      -4.00000000       0.02626994       2.00000000
  1 7 7      -4.00000000       0.02626994       2.00000000
  1 8 3      -4.00000000       0.02626994       2.00000000
  1 8 4      -4.00000000       0.02626994       2.00000000
  1 8 5      -4.00000000       0.02626994       2.00000000
  1 8 6      -4.00000000       0.02626994       2.00000000
  1 8 7      -4.00000000       0.02626994       2.00000000
  1 9 3      -4.00000000       0.02626994       2.00000000
  1 9 4      -4.00000000       0.02626994       2.00000000
  1 9 5      -4.00000000       0.02626994       2.00000000
  1 9 6      -4.00000000       0.02626994       2.00000000
  1 9 7      -4.00000000       0.02626994       2.00000000
  1 10 3      -4.00000000       0.02626994       2.00000000
  1 10 4      -4.00000000       0.02626994       2.00000000
  1 10 5      -4.00000000       0.02626994       2.00000000
  1 10 6      -4.00000000       0.02626994       2.00000000
  1 10 7      -4.00000000       0.02626994       2.00000000
  1 10 8      -4.00000000       0.02626994       2.00000000
  1 11 4      -4.00000000       0.02626994       2.00000000
  1 11 5      -4.00000000       0.02626994       2.00000000
  1 11 6      -4.00000000       0.02626994       2.00000000
  1 11 7      -4.00000000       0.02626994       2.00000000
  1 11 8      -4.00000000       0.02626994       2.00000000
  1 12 4      -4.00000000       0.02626994       2.00000000
  1 12 5      -4.00000000       0.02626994       2.00000000
  1 12 6      -4.00000000       0.02626994       2.00000000
  1 12 7      -4.00000000       0.02626994       2.00000000
  1 12 8      -4.00000000       0.02626994       2.00000000
  1 12 9      -4.00000000       0.02626994       2.00000000
  1 13 5      -4.00000000       0.02626994       2.00000000
  1 13 6      -4.00000000       0.02626994       2.00000000
  1 13 7      -4.00000000       0.02626994       2.00000000
  1 13 8      -4.00000000       0.02626994       2.00000000
  1 13 9      -4.00000000       0.02626994       2.00000000
  1 14 5      -4.00000000       0.02626994       2.00000000
  1 14 6      -4.00000000       0.02626994       2.00000000
  1 14 7      -4.00000000       0.02626994       2.00000000
  1 14 8      -4.00000000       0.02626994       2.00000000
  1 14 9      -4.00000000       0.02626994       2.00000000
  1 15 5      -4.00000000       0.02626994       2.00000000
  1 15 6      -4.00000000       0.02626994       2.00000000
  1 15 7      -4.00000000       0.02626994       2.00000000
  1 15 8      -4.00000000       0.02626994       2.00000000
  1 15 9      -4.00000000       0.02626994       2.00000000
  1 16 6      -4.00000000       0.02626994       2.00000000
  1 16 7      -4.00000000       0.02626994       2.00000000
  1 16 8      -4.00000000       0.02626994       2.00000000
  1 16 9      -4.00000000       0.02626994       2.00000000
END period  7

BEGIN period  8
  1 4 4      -4.00000000       0.02460244       2.00000000
  1 4 5      -4.00000000       0.02460244       2.00000000
  1 4 6      -4.00000000       0.02460244       2.00000000
  1 4 7      -4.00000000       0.02460244       2.00000000
  1 5 3      -4.00000000       0.02460244       2.00000000
  1 5 4      -4.00000000       0.02460244       2.00000000
  1 5 5      -4.00000000       0.02460244       2.00000000
  1 5 6      -4.00000000       0.02460244       2.00000000
  1 5 7      -4.00000000       0.02460244       2.00000000
  1 6 3      -4.00000000       0.02460244       2.00000000
  1 6 4      -4.00000000       0.02460244       2.00000000
  1 6 5      -4.00000000       0.02460244       2.00000000
  1 6 6      -4.00000000       0.02460244       2.00000000
  1 6 7      -4.00000000       0.02460244       2.00000000
  1 7 3      -4.00000000       0.02460244       2.00000000
  1 7 4      -4.00000000       0.02460244       2.00000000
  1 7 5      -4.00000000       0.02460244       2.00000000
  1 7 6      -4.00000000       0.02460244       2.00000000
  1 7 7      -4.00000000       0.02460244       2.00000000
  1 8 3      -4.00000000       0.02460244       2.00000000
  1 8 4      -4.00000000       0.02460244       2.00000000
  1 8 5      -4.00000000       0.02460244       2.00000000
  1 8 6      -4.00000000       0.02460244       2.00000000
  1 8 7      -4.00000000       0.02460244       2.00000000
  1 9 3      -4.00000000       0.02460244       2.00000000
  1 9 4      -4.00000000       0.02460244       2.00000000
  1 9 5      -4.00000000       0.02460244       2.00000000
  1 9 6      -4.00000000       0.02460244       2.00000000
  1 9 7      -4.00000000       0.02460244       2.00000000
  1 10 3      -4.00000000       0.02460244       2.00000000
  1 10 4      -4.00000000       0.02460244       2.00000000
  1 10 5      -4.00000000       0.02460244       2.00000000
  1 10 6      -4.00000000       0.02460244       2.00000000
  1 10 7      -4.00000000       0.02460244       2.00000000
  1 10 8      -4.00000000       0.02460244       2.00000000
  1 11 4      -4.00000000       0.02460244       2.00000000
  1 11 5      -4.00000000       0.02460244       2.00000000
  1 11 6      -4.00000000       0.02460244       2.00000000
  1 11 7      -4.00000000       0.02460244       2.00000000
  1 11 8      -4.00000000       0.02460244       2.00000000
  1 12 4      -4.00000000       0.02460244       2.00000000
  1 12 5      -4.00000000       0.02460244       2.00000000
  1 12 6      -4.00000000       0.02460244       2.00000000
  1 12 7      -4.00000000       0.02460244       2.00000000
  1 12 8      -4.00000000       0.02460244       2.00000000