BEGIN options
  SAVE_SPECIFIC_DISCHARGE
  K33OVERK
END options

BEGIN griddata
  icelltype
    CONSTANT  0
  k  LAYERED
    INTERNAL  FACTOR  1.0
         360.63000000     377.23000000     376.58000000     423.47000000     404.51000000     370.92000000     399.67000000     437.28000000     398.12000000     338.13000000     327.04000000     307.42000000     329.47000000     320.55000000     327.99000000     347.69000000     343.33000000     365.20000000     320.87000000     323.64000000     340.20000000     276.32000000     173.72000000     145.47000000     122.17000000
         347.66000000     358.08000000     370.94000000     406.36000000     372.49000000     357.90000000     409.91000000     423.67000000     428.18000000     408.88000000     345.75000000     319.62000000     342.95000000     380.57000000     402.39000000     385.39000000     393.97000000     392.68000000     328.87000000     332.98000000     331.28000000     278.71000000     193.70000000     127.57000000     104.57000000
         277.53000000     292.17000000     322.20000000     334.77000000     323.62000000     339.85000000     366.45000000     388.59000000     377.97000000     406.58000000     367.87000000     349.43000000     354.84000000     378.28000000     415.61000000     402.19000000     407.37000000     401.77000000     342.68000000     297.05000000     268.05000000     229.10000000     184.21000000     131.59000000      93.40000000
         204.37000000     240.58000000     265.18000000  2.00000000E+06  2.00000000E+06  2.00000000E+06  2.00000000E+06     382.32000000     368.36000000     321.06000000     313.23000000     364.91000000     370.40000000     394.76000000     403.17000000     359.91000000     343.01000000     311.00000000     320.23000000     290.20000000     239.60000000     240.66000000     217.42000000     185.17000000     143.63000000
         253.60000000     256.55000000  2.00000000E+06  2.00000000E+06  2.00000000E+06  2.00000000E+06  2.00000000E+06     399.04000000     368.13000000     310.61000000     289.76000000     336.19000000     369.22000000     364.35000000     325.91000000     334.03000000     284.53000000     280.30000000     286.88000000     297.35000000     257.52000000     226.76000000     230.51000000     212.60000000     200.69000000
         267.98000000     286.02000000  2.00000000E+06  2.00000000E+06  2.00000000E+06  2.00000000E+06  2.00000000E+06     392.54000000     365.67000000     355.30000000     338.53000000     354.28000000     344.91000000     308.58000000     276.36000000     292.58000000     292.99000000     267.65000000     280.06000000     245.42000000     208.36000000     173.86000000     182.01000000     197.43000000     245.86000000
         237.21000000     245.00000000  2.00000000E+06  2.00000000E+06  2.00000000E+06  2.00000000E+06  2.00000000E+06     368.64000000     382.67000000     377.46000000     366.16000000     351.29000000     330.02000000     269.48000000     246.80000000     257.24000000     287.66000000     264.03000000     222.67000000     196.05000000     171.07000000     166.47000000     163.55000000     177.56000000     240.91000000
         243.13000000     235.71000000  2.00000000E+06  2.00000000E+06  2.00000000E+06  2.00000000E+06  2.00000000E+06     342.06000000     344.21000000     343.85000000     328.25000000     305.66000000     306.54000000     294.44000000     266.09000000     283.27000000     265.98000000     279.15000000     219.34000000     178.32000000     193.91000000     168.47000000     176.57000000     189.45000000     233.12000000
         290.60000000     289.85000000  2.00000000E+06  2.00000000E+06  2.00000000E+06  2.00000000E+06  2.00000000E+06     306.75000000     325.07000000     364.30000000     333.88000000     304.72000000     295.91000000     305.93000000     274.14000000     309.96000000     283.64000000     274.27000000     251.18000000     224.44000000     244.41000000     188.13000000     173.22000000     190.05000000     268.45000000
         278.44000000     281.76000000  2.00000000E+06  2.00000000E+06  2.00000000E+06  2.00000000E+06  2.00000000E+06  2.00000000E+06     332.87000000     343.78000000     314.05000000     302.86000000     316.78000000     280.53000000     267.02000000     266.90000000     246.98000000     260.46000000     229.86000000     220.53000000     256.10000000     231.21000000     230.15000000     230.22000000     260.75000000
         274.52000000     254.03000000     238.78000000  2.00000000E+06  2.00000000E+06  2.00000000E+06  2.00000000E+06  2.00000000E+06     290.14000000     286.01000000     265.98000000     256.59000000     288.28000000     281.37000000     275.76000000     252.52000000     218.69000000     250.56000000     235.50000000     236.35000000     249.37000000     254.50000000     270.36000000     255.74000000     239.94000000
         290.70000000     298.43000000     252.52000000  2.00000000E+06  2.00000000E+06  2.00000000E+06  2.00000000E+06  2.00000000E+06  2.00000000E+06     239.28000000     257.91000000     227.49000000     247.29000000     261.14000000     259.05000000     251.17000000     246.08000000     299.58000000     271.53000000     237.24000000     233.76000000     242.95000000     302.82000000     317.99000000     323.12000000
         302.74000000     294.53000000     262.64000000     275.86000000  2.00000000E+06  2.00000000E+06  2.00000000E+06  2.00000000E+06  2.00000000E+06     220.92000000     219.36000000     206.62000000     213.13000000     212.74000000     244.41000000     227.48000000     214.57000000     262.32000000     232.51000000     222.35000000     280.22000000     297.87000000     338.75000000     354.46000000     374.41000000
         281.09000000     304.13000000     259.89000000     289.39000000  2.00000000E+06  2.00000000E+06  2.00000000E+06  2.00000000E+06  2.00000000E+06     204.48000000     164.83000000     170.83000000     182.10000000     222.13000000     242.88000000     197.59000000     164.23000000     217.06000000     229.05000000     252.26000000     299.64000000     353.86000000     352.56000000     372.23000000     359.22000000
         265.31000000     276.94000000     258.88000000     325.48000000  2.00000000E+06  2.00000000E+06  2.00000000E+06  2.00000000E+06  2.00000000E+06     199.45000000     170.08000000     156.81000000     153.41000000     187.34000000     251.95000000     241.66000000     200.56000000     211.51000000     218.77000000     234.97000000     269.51000000     314.14000000     382.70000000     403.97000000     411.32000000
         235.05000000     219.23000000     238.82000000     278.72000000     305.71000000  2.00000000E+06  2.00000000E+06  2.00000000E+06  2.00000000E+06     208.03000000     172.05000000     148.20000000     127.91000000     163.37000000     197.92000000     196.55000000     201.16000000     218.12000000     224.00000000     233.09000000     264.54000000     307.93000000     360.09000000     406.37000000     399.84000000
         194.85000000     180.28000000     173.11000000     229.59000000     243.50000000     211.04000000     166.10000000     179.74000000     169.01000000     150.69000000     141.73000000     149.94000000     149.90000000     147.79000000     178.01000000     157.29000000     179.77000000     220.07000000     223.42000000     205.46000000     226.84000000     257.00000000     286.90000000     342.82000000     346.51000000
         179.34000000     181.63000000     183.90000000     203.34000000     169.54000000     134.01000000     125.89000000     163.28000000     171.08000000     168.86000000     172.64000000     144.88000000     140.70000000     151.58000000     147.55000000     156.18000000     161.48000000     191.26000000     181.55000000     213.86000000     237.90000000     227.97000000     266.26000000     319.67000000     361.89000000
         180.37000000     171.68000000     193.81000000     201.19000000     168.49000000     142.66000000     153.81000000     190.14000000     183.16000000     154.85000000     115.70000000     111.00000000      92.00000000     127.61000000     108.91000000     121.43000000     156.01000000     174.29000000     174.54000000     191.44000000     239.49000000     243.49000000     276.11000000     284.60000000     341.16000000
         199.41000000     193.59000000     221.37000000     227.90000000     204.39000000     158.50000000     140.89000000     172.25000000     162.68000000     143.36000000     107.26000000     121.25000000     122.26000000     122.76000000      98.69000000     107.23000000     136.54000000     173.95000000     193.44000000     210.51000000     227.80000000     256.02000000     283.22000000     270.95000000     271.78000000
         147.41000000     185.72000000     197.69000000     202.90000000     187.27000000     140.12000000     101.85000000     145.84000000     152.42000000     113.88000000      93.29000000      80.31000000     129.08000000     115.77000000      98.50000000     108.67000000     130.28000000     156.40000000     196.58000000     212.29000000     219.00000000     226.00000000     235.09000000     220.58000000     212.74000000
         134.24000000     190.44000000     192.41000000     158.28000000     122.91000000     101.56000000      99.23000000     108.29000000     113.18000000      84.68000000      68.90000000      80.05000000     100.42000000     109.52000000     104.62000000     135.52000000     103.68000000     151.51000000     202.64000000     215.28000000     227.55000000     201.95000000     186.65000000     166.24000000     133.13000000
         141.43000000     178.26000000     189.48000000     172.07000000     115.61000000      97.18000000      97.42000000     118.75000000      70.58000000      56.67000000      52.95000000      67.11000000     100.27000000     109.05000000     130.68000000     159.86000000     122.12000000     165.47000000     178.99000000     169.20000000     183.90000000     144.88000000     155.13000000     146.25000000     135.39000000
         182.42000000     185.71000000     193.17000000     206.82000000     176.63000000     156.66000000     128.28000000     155.40000000     100.79000000     101.25000000      84.15000000      89.97000000     124.54000000     111.37000000     122.25000000     147.28000000     132.31000000     154.68000000     135.07000000     130.52000000     127.05000000     126.48000000     133.31000000     131.51000000     136.93000000
         163.02000000     183.17000000     178.41000000     218.01000000     226.41000000     201.28000000     191.89000000     201.93000000     177.74000000     157.71000000     117.04000000     100.18000000     135.19000000     128.76000000     107.10000000     110.84000000      96.62000000     115.88000000      84.34000000      84.01000000      76.90000000      79.30000000     115.50000000     113.03000000     128.91000000
         150.58000000     192.71000000     209.38000000     219.11000000     253.54000000     213.94000000     208.57000000     246.32000000     241.25000000     217.96000000     158.30000000     146.35000000     164.53000000     122.69000000     101.38000000     107.93000000      90.75000000     100.81000000      67.50000000      78.01000000     116.42000000      98.01000000     101.31000000     103.05000000     116.09000000
         107.83000000     196.52000000     213.05000000     215.73000000     218.90000000     211.13000000     230.80000000     256.41000000     234.91000000     220.60000000     179.50000000     176.44000000     166.69000000     131.37000000     126.23000000      95.36000000     105.71000000     103.16000000     105.51000000     129.58000000     151.13000000     128.95000000     109.85000000     113.52000000     139.83000000
          70.07000000     145.82000000     171.63000000     180.68000000     152.43000000     163.46000000     188.75000000     236.23000000     221.71000000     212.95000000     178.30000000     192.35000000     190.95000000     151.28000000     148.20000000     117.52000000     110.11000000     118.59000000     108.55000000     164.76000000     179.96000000     167.20000000     131.05000000     143.48000000     158.28000000
          80.62000000     121.09000000     137.66000000     162.87000000     131.40000000     104.43000000     153.43000000     209.05000000     233.69000000     220.63000000     183.20000000     182.16000000     193.75000000     199.71000000     177.50000000     170.24000000     157.75000000     176.38000000     169.02000000     160.24000000     197.83000000     156.91000000     158.69000000     168.87000000     195.56000000
         110.13000000     118.15000000     118.12000000     143.98000000     137.99000000     101.33000000     140.90000000     190.92000000     227.90000000     232.58000000     216.43000000     196.26000000     185.04000000     216.26000000     193.12000000     164.63000000     169.02000000     206.25000000     224.26000000     200.80000000     231.19000000     207.95000000     188.06000000     167.10000000     213.17000000
         138.98000000     124.61000000      95.30000000     121.74000000     151.72000000     125.95000000     135.93000000     209.75000000     221.31000000     228.79000000     229.01000000     237.67000000     219.29000000     178.24000000     193.14000000     166.04000000     154.27000000     215.40000000     234.27000000     235.48000000     238.93000000     238.60000000     209.27000000     221.82000000     222.39000000
         145.31000000     144.10000000     102.31000000      84.80000000     118.30000000     118.52000000     138.36000000     194.26000000     226.61000000     211.51000000     222.95000000     237.25000000     188.74000000     174.62000000     154.16000000     140.80000000     180.05000000     226.55000000     229.68000000     223.42000000     244.96000000     245.77000000     223.22000000     216.96000000     193.05000000
         195.09000000     177.81000000     134.52000000     139.42000000     140.63000000     134.39000000     141.05000000     225.03000000     248.56000000     245.29000000     229.73000000     205.26000000     175.40000000     200.33000000     175.32000000     189.67000000     220.27000000     260.60000000     269.65000000     256.23000000     261.22000000     255.45000000     246.43000000     211.84000000     209.64000000
         177.59000000     182.12000000     134.91000000     159.67000000     147.89000000     157.20000000     159.36000000     250.54000000     252.66000000     253.98000000     229.26000000     154.38000000     144.97000000     172.97000000     176.39000000     195.96000000     203.77000000     279.92000000     270.05000000     241.54000000     238.98000000     244.64000000     238.06000000     212.56000000     180.87000000
         170.26000000     158.26000000     149.08000000     156.41000000     159.16000000     172.40000000     189.45000000     253.53000000     292.36000000     288.99000000     240.37000000     152.13000000     126.20000000     148.14000000     165.12000000     183.22000000     202.93000000     264.00000000     247.30000000     232.85000000     228.42000000     215.13000000     234.27000000     211.61000000     203.40000000
         175.30000000     158.28000000     170.09000000     168.71000000     188.53000000     205.85000000     220.16000000     256.59000000     270.72000000     277.37000000     257.61000000     193.64000000     140.51000000     108.18000000     132.08000000     174.42000000     192.07000000     247.03000000     258.81000000     268.38000000     267.67000000     216.16000000     237.85000000     200.70000000     200.08000000
         132.08000000     133.13000000     136.07000000     199.08000000     250.47000000     242.89000000     196.58000000     231.09000000     243.66000000     264.37000000     220.75000000     171.28000000     141.25000000     101.03000000     107.43000000     149.28000000     169.51000000     234.31000000     273.42000000     288.80000000     297.89000000     248.69000000     211.43000000     196.79000000     193.98000000
         107.95000000     105.50000000     127.17000000     190.86000000     234.74000000     234.72000000     192.43000000     208.02000000     227.23000000     237.96000000     190.49000000     169.91000000     185.10000000     126.39000000     133.70000000     144.63000000     168.24000000     209.33000000     235.97000000     262.62000000     253.15000000     255.24000000     242.21000000     188.24000000     185.74000000
         146.94000000     141.04000000     140.42000000     205.17000000     269.27000000     233.88000000     225.52000000     213.51000000     202.31000000     232.01000000     198.87000000     174.94000000     212.37000000     202.09000000     186.77000000     160.76000000     142.14000000     184.14000000     226.20000000     242.27000000     267.35000000     255.68000000     243.66000000     205.30000000     200.36000000
         212.08000000     188.56000000     195.37000000     231.05000000     262.01000000     259.79000000     247.63000000     242.25000000     226.23000000     229.90000000     202.22000000     202.01000000     195.50000000     192.67000000     185.74000000     157.76000000     142.20000000     164.79000000     223.68000000     249.54000000     282.79000000     256.42000000     246.54000000     241.93000000     228.73000000
    INTERNAL  FACTOR  1.0
         360.63000000     377.23000000     376.58000000     423.47000000     404.51000000     370.92000000     399.67000000     437.28000000     398.12000000     338.13000000     327.04000000     307.42000000     329.47000000     320.55000000     327.99000000     347.69000000     343.33000000     365.20000000     320.87000000     323.64000000     340.20000000     276.32000000     173.72000000     145.47000000     122.17000000
         347.66000000     358.08000000     370.94000000     406.36000000     372.49000000     357.90000000     409.91000000     423.67000000     428.18000000     408.88000000     345.75000000     319.62000000     342.95000000     380.57000000     402.39000000     385.39000000     393.97000000     392.68000000     328.87000000     332.98000000     331.28000000     278.71000000     193.70000000     127.57000000     104.57000000
         277.53000000     292.17000000     322.20000000     334.77000000     323.62000000     339.85000000     366.45000000     388.59000000     377.97000000     406.58000000     367.87000000     349.43000000     354.84000000     378.28000000     415.61000000     402.19000000     407.37000000     401.77000000     342.68000000     297.05000000     268.05000000     229.10000000     184.21000000     131.59000000      93.40000000
         204.37000000     240.58000000     265.18000000     312.91000000     315.07000000     353.11000000     356.83000000     382.32000000     368.36000000     321.06000000     313.23000000     364.91000000     370.40000000     394.76000000     403.17000000     359.91000000     343.01000000     311.00000000     320.23000000     290.20000000     239.60000000     240.66000000     217.42000000     185.17000000     143.63000000
         253.60000000     256.55000000     278.64000000     307.15000000     352.30000000     374.91000000     393.92000000     399.04000000     368.13000000     310.61000000     289.76000000     336.19000000     369.22000000     364.35000000     325.91000000     334.03000000     284.53000000     280.30000000     286.88000000     297.35000000     257.52000000     226.76000000     230.51000000     212.60000000     200.69000000
         267.98000000     286.02000000     337.27000000     344.39000000     363.71000000     371.22000000     368.05000000     392.54000000     365.67000000     355.30000000     338.53000000     354.28000000     344.91000000     308.58000000     276.36000000     292.58000000     292.99000000     267.65000000     280.06000000     245.42000000     208.36000000     173.86000000     182.01000000     197.43000000     245.86000000
         237.21000000     245.00000000     283.36000000     300.67000000     337.39000000     341.19000000     344.21000000     368.64000000     382.67000000     377.46000000     366.16000000     351.29000000     330.02000000     269.48000000     246.80000000     257.24000000     287.66000000     264.03000000     222.67000000     196.05000000     171.07000000     166.47000000     163.55000000     177.56000000     240.91000000
         243.13000000     235.71000000     226.01000000     243.58000000     304.82000000     328.84000000     309.49000000     342.06000000     344.21000000     343.85000000     328.25000000     305.66000000     306.54000000     294.44000000     266.09000000     283.27000000     265.98000000     279.15000000     219.34000000     178.32000000     193.91000000     168.47000000     176.57000000     189.45000000     233.12000000
         290.60000000     289.85000000     240.47000000     241.65000000     266.85000000     282.63000000     295.86000000     306.75000000     325.07000000     364.30000000     333.88000000     304.72000000     295.91000000     305.93000000     274.14000000     309.96000000     283.64000000     274.27000000     251.18000000     224.44000000     244.41000000     188.13000000     173.22000000     190.05000000     268.45000000
         278.44000000     281.76000000     234.58000000     246.13000000     261.32000000     270.03000000     273.31000000     344.52000000     332.87000000     343.78000000     314.05000000     302.86000000     316.78000000     280.53000000     267.02000000     266.90000000     246.98000000     260.46000000     229.86000000     220.53000000     256.10000000     231.21000000     230.15000000     230.22000000     260.75000000
         274.52000000     254.03000000     238.78000000     272.08000000     297.33000000     286.24000000     265.04000000     276.69000000     290.14000000     286.01000000     265.98000000     256.59000000     288.28000000     281.37000000     275.76000000     252.52000000     218.69000000     250.56000000     235.50000000     236.35000000     249.37000000     254.50000000     270.36000000     255.74000000     239.94000000
         290.70000000     298.43000000     252.52000000     299.08000000     307.81000000     255.48000000     225.03000000     209.72000000     216.04000000     239.28000000     257.91000000     227.49000000     247.29000000     261.14000000     259.05000000     251.17000000     246.08000000     299.58000000     271.53000000     237.24000000     233.76000000     242.95000000     302.82000000     317.99000000     323.12000000
         302.74000000     294.53000000     262.64000000     275.86000000     281.22000000     244.76000000     188.75000000     198.92000000     192.23000000     220.92000000     219.36000000     206.62000000     213.13000000     212.74000000     244.41000000     227.48000000     214.57000000     262.32000000     232.51000000     222.35000000     280.22000000     297.87000000     338.75000000     354.46000000     374.41000000
         281.09000000     304.13000000     259.89000000     289.39000000     308.95000000     253.52000000     197.67000000     210.03000000     187.70000000     204.48000000     164.83000000     170.83000000     182.10000000     222.13000000     242.88000000     197.59000000     164.23000000     217.06000000     229.05000000     252.26000000     299.64000000     353.86000000     352.56000000     372.23000000     359.22000000
         265.31000000     276.94000000     258.88000000     325.48000000     345.62000000     269.97000000     220.83000000     209.32000000     193.75000000     199.45000000     170.08000000     156.81000000     153.41000000     187.34000000     251.95000000     241.66000000     200.56000000     211.51000000     218.77000000     234.97000000     269.51000000     314.14000000     382.70000000     403.97000000     411.32000000
         235.05000000     219.23000000     238.82000000     278.72000000     305.71000000     243.72000000     215.27000000     230.17000000     220.32000000     208.03000000     172.05000000     148.20000000     127.91000000     163.37000000     197.92000000     196.55000000     201.16000000     218.12000000     224.00000000     233.09000000     264.54000000     307.93000000     360.09000000     406.37000000     399.84000000
         194.85000000     180.28000000     173.11000000     229.59000000     243.50000000     211.04000000     166.10000000     179.74000000     169.01000000     150.69000000     141.73000000     149.94000000     149.90000000     147.79000000     178.01000000     157.29000000     179.77000000     220.07000000     223.42000000     205.46000000     226.84000000     257.00000000     286.90000000     342.82000000     346.51000000
         179.34000000     181.63000000     183.90000000     203.34000000     169.54000000     134.01000000     125.89000000     163.28000000     171.08000000     168.86000000     172.64000000     144.88000000     140.70000000     151.58000000     147.55000000     156.18000000     161.48000000     191.26000000     181.55000000     213.86000000     237.90000000     227.97000000     266.26000000     319.67000000     361.89000000
         180.37000000     171.68000000     193.81000000     201.19000000     168.49000000     142.66000000     153.81000000     190.14000000     183.16000000     154.85000000     115.70000000     111.00000000      92.00000000     127.61000000     108.91000000     121.43000000     156.01000000     174.29000000     174.54000000     191.44000000     239.49000000     243.49000000     276.11000000     284.60000000     341.16000000
         199.41000000     193.59000000     221.37000000     227.90000000     204.39000000     158.50000000     140.89000000     172.25000000     162.68000000     143.36000000     107.26000000     121.25000000     122.26000000     122.76000000      98.69000000     107.23000000     136.54000000     173.95000000     193.44000000     210.51000000     227.80000000     256.02000000     283.22000000     270.95000000     271.78000000
         147.41000000     185.72000000     197.69000000     202.90000000     187.27000000     140.12000000     101.85000000     145.84000000     152.42000000     113.88000000      93.29000000      80.31000000     129.08000000     115.77000000      98.50000000     108.67000000     130.28000000     156.40000000     196.58000000     212.29000000     219.00000000     226.00000000     235.09000000     220.58000000     212.74000000
         134.24000000     190.44000000     192.41000000     158.28000000     122.91000000     101.56000000      99.23000000     108.29000000     113.18000000      84.68000000      68.90000000      80.05000000     100.42000000     109.52000000     104.62000000     135.52000000     103.68000000     151.51000000     202.64000000     215.28000000     227.55000000     201.95000000     186.65000000     166.24000000     133.13000000
         141.43000000     178.26000000     189.48000000     172.07000000     115.61000000      97.18000000      97.42000000     118.75000000      70.58000000      56.67000000      52.95000000      67.11000000     100.27000000     109.05000000     130.68000000     159.86000000     122.12000000     165.47000000     178.99000000     169.20000000     183.90000000     144.88000000     155.13000000     146.25000000     135.39000000
         182.42000000     185.71000000     193.17000000     206.82000000     176.63000000     156.66000000     128.28000000     155.40000000     100.79000000     101.25000000      84.15000000      89.97000000     124.54000000     111.37000000     122.25000000     147.28000000     132.31000000     154.68000000     135.07000000     130.52000000     127.05000000     126.48000000     133.31000000     131.51000000     136.93000000
         163.02000000     183.17000000     178.41000000     218.01000000     226.41000000     201.28000000     191.89000000     201.93000000     177.74000000     157.71000000     117.04000000     100.18000000     135.19000000     128.76000000     107.10000000     110.84000000      96.62000000     115.88000000      84.34000000      84.01000000      76.90000000      79.30000000     115.50000000     113.03000000     128.91000000
         150.58000000     192.71000000     209.38000000     219.11000000     253.54000000     213.94000000     208.57000000     246.32000000     241.25000000     217.96000000     158.30000000     146.35000000     164.53000000     122.69000000     101.38000000     107.93000000      90.75000000     100.81000000      67.50000000      78.01000000     116.42000000      98.01000000     101.31000000     103.05000000     116.09000000
         107.83000000     196.52000000     213.05000000     215.73000000     218.90000000     211.13000000     230.80000000     256.41000000     234.91000000     220.60000000     179.50000000     176.44000000     166.69000000     131.37000000     126.23000000      95.36000000     105.71000000     103.16000000     105.51000000     129.58000000     151.13000000     128.95000000     109.85000000     113.52000000     139.83000000
          70.07000000     145.82000000     171.63000000     180.68000000     152.43000000     163.46000000     188.75000000     236.23000000     221.71000000     212.95000000     178.30000000     192.35000000     190.95000000     151.28000000     148.20000000     117.52000000     110.11000000     118.59000000     108.55000000     164.76000000     179.96000000     167.20000000     131.05000000     143.48000000     158.28000000
          80.62000000     121.09000000     137.66000000     162.87000000     131.40000000     104.43000000     153.43000000     209.05000000     233.69000000     220.63000000     183.20000000     182.16000000     193.75000000     199.71000000     177.50000000     170.24000000     157.75000000     176.38000000     169.02000000     160.24000000     197.83000000     156.91000000     158.69000000     168.87000000     195.56000000