BEGIN options
  BOUNDNAMES
  PRINT_FLOWS
  OBS6  FILEIN  sv.riv.obs
END options

BEGIN dimensions
  MAXBOUND  18
END dimensions

BEGIN period  1
  1 23 9 1.75000000E+00 1.00000000E+05 7.50000000E-01 RIV
  1 24 9 1.65000000E+00 1.00000000E+05 6.50000000E-01 RIV
  1 25 9 1.55000000E+00 1.00000000E+05 5.50000000E-01 RIV
  1 26 9 1.45000000E+00 1.00000000E+05 4.50000000E-01 RIV
  1 27 9 1.35000000E+00 1.00000000E+05 3.50000000E-01 RIV
  1 28 9 1.25000000E+00 1.00000000E+05 2.50000000E-01 RIV
  1 29 9 1.15000000E+00 1.00000000E+05 1.50000000E-01 RIV
  1 30 9 1.05000000E+00 1.00000000E+05 5.00000000E-02 RIV
  1 31 9 9.50000000E-01 1.00000000E+05 -5.00000000E-02 RIV
  1 32 9 8.50000000E-01 1.00000000E+05 -1.50000000E-01 RIV
  1 33 9 7.50000000E-01 1.00000000E+05 -2.50000000E-01 RIV
  1 34 9 6.50000000E-01 1.00000000E+05 -3.50000000E-01 RIV
  1 35 9 5.50000000E-01 1.00000000E+05 -4.50000000E-01 RIV
  1 36 9 4.50000000E-01 1.00000000E+05 -5.50000000E-01 RIV
  1 37 9 3.50000000E-01 1.00000000E+05 -6.50000000E-01 RIV
  1 38 9 2.50000000E-01 1.00000000E+05 -7.50000000E-01 RIV
  1 39 9 1.50000000E-01 1.00000000E+05 -8.50000000E-01 RIV
  1 40 9 5.00000000E-02 1.00000000E+05 -9.50000000E-01 RIV
END period  1

