BEGIN options
END options

BEGIN griddata
  iconvert
    CONSTANT  0
  ss  LAYERED
    CONSTANT  5.00000000E-05
    CONSTANT  5.00000000E-05
    INTERNAL  FACTOR  1.0
           0.00500000       0.00500000       0.00500000       0.00500000       0.00500000       0.00500000       0.00500000       0.00500000       0.00500000       0.00500000       0.00500000       0.00500000  5.00000000E-05  5.00000000E-05  5.00000000E-05  5.00000000E-05  5.00000000E-05  5.00000000E-05  5.00000000E-05  5.00000000E-05  5.00000000E-05  5.00000000E-05  5.00000000E-05  5.00000000E-05  5.00000000E-05
           0.00500000       0.00500000       0.00500000       0.00500000       0.00500000       0.00500000       0.00500000       0.00500000       0.00500000       0.00500000       0.00500000       0.00500000       0.00500000       0.00500000       0.00500000       0.00500000       0.00500000       0.00500000       0.00500000  5.00000000E-05  5.00000000E-05  5.00000000E-05  5.00000000E-05  5.00000000E-05  5.00000000E-05
           0.00500000       0.00500000       0.00500000       0.00500000       0.00500000       0.00500000       0.00500000       0.00500000       0.00500000       0.00500000       0.00500000       0.00500000       0.00500000       0.00500000       0.00500000       0.00500000       0.00500000       0.00500000       0.00500000       0.00500000       0.00500000       0.00500000       0.00500000       0.00500000  5.00000000E-05
           0.00500000       0.00500000       0.00500000       0.00500000       0.00500000       0.00500000       0.00500000       0.00500000       0.00500000       0.00500000       0.00500000       0.00500000       0.00500000       0.00500000       0.00500000       0.00500000       0.00500000       0.00500000       0.00500000       0.00500000       0.00500000       0.00500000       0.00500000       0.00500000  5.00000000E-05
           0.00500000       0.00500000       0.00500000       0.00500000       0.00500000       0.00500000       0.00500000       0.00500000       0.00500000       0.00500000       0.00500000       0.00500000       0.00500000       0.00500000       0.00500000       0.00500000       0.00500000       0.00500000       0.00500000       0.00500000       0.00500000       0.00500000       0.00500000       0.00500000  5.00000000E-05
           0.00500000       0.00500000       0.00500000       0.00500000       0.00500000       0.00500000       0.00500000       0.00500000       0.00500000       0.00500000       0.00500000       0.00500000       0.00500000       0.00500000       0.00500000       0.00500000       0.00500000       0.00500000       0.00500000       0.00500000       0.00500000       0.00500000       0.00500000  5.00000000E-05  5.00000000E-05
           0.00500000       0.00500000       0.00500000       0.00500000       0.00500000       0.00500000       0.00500000       0.00500000       0.00500000       0.00500000       0.00500000       0.00500000       0.00500000       0.00500000       0.00500000       0.00500000       0.00500000       0.00500000       0.00500000       0.00500000       0.00500000       0.00500000       0.00500000  5.00000000E-05  5.00000000E-05
           0.00500000       0.00500000       0.00500000       0.00500000       0.00500000       0.00500000       0.00500000       0.00500000       0.00500000       0.00500000       0.00500000       0.00500000       0.00500000       0.00500000       0.00500000       0.00500000       0.00500000       0.00500000       0.00500000       0.00500000       0.00500000       0.00500000       0.00500000  5.00000000E-05  5.00000000E-05
           0.00500000       0.00500000       0.00500000       0.00500000       0.00500000       0.00500000       0.00500000       0.00500000       0.00500000       0.00500000       0.00500000       0.00500000       0.00500000       0.00500000       0.00500000       0.00500000       0.00500000       0.00500000       0.00500000       0.00500000       0.00500000       0.00500000       0.00500000  5.00000000E-05  5.00000000E-05
           0.00500000       0.00500000       0.00500000       0.00500000       0.00500000       0.00500000       0.00500000       0.00500000       0.00500000       0.00500000       0.00500000       0.00500000       0.00500000       0.00500000       0.00500000       0.00500000       0.00500000       0.00500000       0.00500000       0.00500000       0.00500000       0.00500000  5.00000000E-05  5.00000000E-05  5.00000000E-05
           0.00500000       0.00500000       0.00500000       0.00500000       0.00500000       0.00500000       0.00500000       0.00500000       0.00500000       0.00500000       0.00500000       0.00500000       0.00500000       0.00500000       0.00500000       0.00500000       0.00500000       0.00500000       0.00500000       0.00500000       0.00500000  5.00000000E-05  5.00000000E-05  5.00000000E-05  5.00000000E-05
           0.00500000       0.00500000       0.00500000       0.00500000       0.00500000       0.00500000       0.00500000       0.00500000       0.00500000       0.00500000       0.00500000       0.00500000       0.00500000       0.00500000       0.00500000       0.00500000       0.00500000  5.00000000E-05  5.00000000E-05  5.00000000E-05  5.00000000E-05  5.00000000E-05  5.00000000E-05  5.00000000E-05  5.00000000E-05
           0.00500000       0.00500000       0.00500000       0.00500000       0.00500000       0.00500000       0.00500000       0.00500000       0.00500000       0.00500000       0.00500000       0.00500000       0.00500000       0.00500000       0.00500000       0.00500000  5.00000000E-05  5.00000000E-05  5.00000000E-05  5.00000000E-05  5.00000000E-05  5.00000000E-05  5.00000000E-05  5.00000000E-05  5.00000000E-05
           0.00500000       0.00500000       0.00500000       0.00500000       0.00500000       0.00500000       0.00500000       0.00500000       0.00500000       0.00500000       0.00500000       0.00500000       0.00500000       0.00500000  5.00000000E-05  5.00000000E-05  5.00000000E-05  5.00000000E-05  5.00000000E-05  5.00000000E-05  5.00000000E-05  5.00000000E-05  5.00000000E-05  5.00000000E-05  5.00000000E-05
      5.00000000E-05       0.00500000       0.00500000       0.00500000       0.00500000       0.00500000       0.00500000       0.00500000       0.00500000       0.00500000       0.00500000       0.00500000       0.00500000       0.00500000  5.00000000E-05  5.00000000E-05  5.00000000E-05  5.00000000E-05  5.00000000E-05  5.00000000E-05  5.00000000E-05  5.00000000E-05  5.00000000E-05  5.00000000E-05  5.00000000E-05
      5.00000000E-05  5.00000000E-05       0.00500000       0.00500000       0.00500000       0.00500000       0.00500000       0.00500000       0.00500000       0.00500000       0.00500000       0.00500000  5.00000000E-05  5.00000000E-05  5.00000000E-05  5.00000000E-05  5.00000000E-05  5.00000000E-05  5.00000000E-05  5.00000000E-05  5.00000000E-05  5.00000000E-05  5.00000000E-05  5.00000000E-05  5.00000000E-05
      5.00000000E-05  5.00000000E-05  5.00000000E-05  5.00000000E-05  5.00000000E-05       0.00500000       0.00500000       0.00500000       0.00500000       0.00500000       0.00500000  5.00000000E-05  5.00000000E-05  5.00000000E-05       0.00500000       0.00500000       0.00500000  5.00000000E-05  5.00000000E-05  5.00000000E-05  5.00000000E-05  5.00000000E-05  5.00000000E-05  5.00000000E-05  5.00000000E-05
      5.00000000E-05  5.00000000E-05  5.00000000E-05  5.00000000E-05  5.00000000E-05  5.00000000E-05  5.00000000E-05  5.00000000E-05  5.00000000E-05  5.00000000E-05  5.00000000E-05  5.00000000E-05  5.00000000E-05  5.00000000E-05  5.00000000E-05       0.00500000       0.00500000       0.00500000  5.00000000E-05  5.00000000E-05  5.00000000E-05  5.00000000E-05  5.00000000E-05  5.00000000E-05  5.00000000E-05
      5.00000000E-05  5.00000000E-05  5.00000000E-05  5.00000000E-05  5.00000000E-05  5.00000000E-05  5.00000000E-05  5.00000000E-05  5.00000000E-05  5.00000000E-05  5.00000000E-05  5.00000000E-05  5.00000000E-05       0.00500000       0.00500000       0.00500000       0.00500000       0.00500000       0.00500000  5.00000000E-05  5.00000000E-05  5.00000000E-05  5.00000000E-05  5.00000000E-05  5.00000000E-05
      5.00000000E-05  5.00000000E-05  5.00000000E-05  5.00000000E-05  5.00000000E-05  5.00000000E-05  5.00000000E-05  5.00000000E-05  5.00000000E-05  5.00000000E-05  5.00000000E-05  5.00000000E-05  5.00000000E-05  5.00000000E-05  5.00000000E-05  5.00000000E-05       0.00500000       0.00500000       0.00500000       0.00500000  5.00000000E-05  5.00000000E-05  5.00000000E-05  5.00000000E-05  5.00000000E-05
      5.00000000E-05  5.00000000E-05  5.00000000E-05  5.00000000E-05  5.00000000E-05  5.00000000E-05  5.00000000E-05  5.00000000E-05  5.00000000E-05  5.00000000E-05  5.00000000E-05  5.00000000E-05  5.00000000E-05  5.00000000E-05       0.00500000       0.00500000       0.00500000       0.00500000       0.00500000  5.00000000E-05  5.00000000E-05  5.00000000E-05  5.00000000E-05  5.00000000E-05  5.00000000E-05
      5.00000000E-05  5.00000000E-05  5.00000000E-05  5.00000000E-05  5.00000000E-05  5.00000000E-05  5.00000000E-05  5.00000000E-05  5.00000000E-05  5.00000000E-05  5.00000000E-05  5.00000000E-05  5.00000000E-05       0.00500000       0.00500000       0.00500000       0.00500000       0.00500000  5.00000000E-05  5.00000000E-05  5.00000000E-05  5.00000000E-05  5.00000000E-05  5.00000000E-05  5.00000000E-05
      5.00000000E-05  5.00000000E-05  5.00000000E-05  5.00000000E-05  5.00000000E-05  5.00000000E-05  5.00000000E-05  5.00000000E-05  5.00000000E-05  5.00000000E-05  5.00000000E-05  5.00000000E-05  5.00000000E-05  5.00000000E-05       0.00500000       0.00500000       0.00500000  5.00000000E-05  5.00000000E-05  5.00000000E-05  5.00000000E-05  5.00000000E-05  5.00000000E-05  5.00000000E-05  5.00000000E-05
      5.00000000E-05  5.00000000E-05  5.00000000E-05  5.00000000E-05  5.00000000E-05  5.00000000E-05  5.00000000E-05  5.00000000E-05  5.00000000E-05  5.00000000E-05  5.00000000E-05  5.00000000E-05  5.00000000E-05  5.00000000E-05  5.00000000E-05       0.00500000  5.00000000E-05  5.00000000E-05  5.00000000E-05  5.00000000E-05  5.00000000E-05  5.00000000E-05  5.00000000E-05  5.00000000E-05  5.00000000E-05
      5.00000000E-05  5.00000000E-05  5.00000000E-05  5.00000000E-05  5.00000000E-05  5.00000000E-05  5.00000000E-05  5.00000000E-05  5.00000000E-05  5.00000000E-05  5.00000000E-05  5.00000000E-05  5.00000000E-05  5.00000000E-05  5.00000000E-05       0.00500000       0.00500000  5.00000000E-05  5.00000000E-05  5.00000000E-05  5.00000000E-05  5.00000000E-05  5.00000000E-05  5.00000000E-05  5.00000000E-05
      5.00000000E-05  5.00000000E-05  5.00000000E-05  5.00000000E-05  5.00000000E-05  5.00000000E-05  5.00000000E-05  5.00000000E-05  5.00000000E-05  5.00000000E-05  5.00000000E-05  5.00000000E-05  5.00000000E-05  5.00000000E-05  5.00000000E-05  5.00000000E-05  5.00000000E-05  5.00000000E-05  5.00000000E-05  5.00000000E-05  5.00000000E-05  5.00000000E-05  5.00000000E-05  5.00000000E-05  5.00000000E-05
      5.00000000E-05  5.00000000E-05  5.00000000E-05  5.00000000E-05  5.00000000E-05  5.00000000E-05  5.00000000E-05  5.00000000E-05  5.00000000E-05  5.00000000E-05  5.00000000E-05  5.00000000E-05  5.00000000E-05  5.00000000E-05  5.00000000E-05  5.00000000E-05  5.00000000E-05  5.00000000E-05  5.00000000E-05  5.00000000E-05  5.00000000E-05  5.00000000E-05  5.00000000E-05  5.00000000E-05  5.00000000E-05
      5.00000000E-05  5.00000000E-05  5.00000000E-05  5.00000000E-05  5.00000000E-05  5.00000000E-05  5.00000000E-05  5.00000000E-05  5.00000000E-05  5.00000000E-05  5.00000000E-05  5.00000000E-05  5.00000000E-05  5.00000000E-05  5.00000000E-05  5.00000000E-05  5.00000000E-05  5.00000000E-05  5.00000000E-05  5.00000000E-05  5.00000000E-05  5.00000000E-05  5.00000000E-05  5.00000000E-05  5.00000000E-05
      5.00000000E-05  5.00000000E-05  5.00000000E-05  5.00000000E-05  5.00000000E-05  5.00000000E-05  5.00000000E-05  5.00000000E-05  5.00000000E-05  5.00000000E-05  5.00000000E-05  5.00000000E-05  5.00000000E-05  5.00000000E-05  5.00000000E-05  5.00000000E-05  5.00000000E-05  5.00000000E-05  5.00000000E-05  5.00000000E-05  5.00000000E-05  5.00000000E-05  5.00000000E-05  5.00000000E-05  5.00000000E-05
      5.00000000E-05  5.00000000E-05  5.00000000E-05  5.00000000E-05  5.00000000E-05  5.00000000E-05  5.00000000E-05  5.00000000E-05  5.00000000E-05  5.00000000E-05  5.00000000E-05  5.00000000E-05  5.00000000E-05  5.00000000E-05  5.00000000E-05  5.00000000E-05  5.00000000E-05  5.00000000E-05  5.00000000E-05  5.00000000E-05  5.00000000E-05  5.00000000E-05  5.00000000E-05  5.00000000E-05  5.00000000E-05
      5.00000000E-05  5.00000000E-05  5.00000000E-05  5.00000000E-05  5.00000000E-05  5.00000000E-05  5.00000000E-05  5.00000000E-05  5.00000000E-05  5.00000000E-05  5.00000000E-05  5.00000000E-05  5.00000000E-05  5.00000000E-05  5.00000000E-05  5.00000000E-05  5.00000000E-05  5.00000000E-05  5.00000000E-05  5.00000000E-05  5.00000000E-05  5.00000000E-05  5.00000000E-05  5.00000000E-05  5.00000000E-05
      5.00000000E-05  5.00000000E-05  5.00000000E-05  5.00000000E-05  5.00000000E-05  5.00000000E-05  5.00000000E-05  5.00000000E-05  5.00000000E-05  5.00000000E-05  5.00000000E-05  5.00000000E-05  5.00000000E-05  5.00000000E-05  5.00000000E-05  5.00000000E-05  5.00000000E-05  5.00000000E-05  5.00000000E-05  5.00000000E-05  5.00000000E-05  5.00000000E-05  5.00000000E-05  5.00000000E-05  5.00000000E-05
      5.00000000E-05  5.00000000E-05  5.00000000E-05  5.00000000E-05  5.00000000E-05  5.00000000E-05  5.00000000E-05  5.00000000E-05  5.00000000E-05  5.00000000E-05  5.00000000E-05  5.00000000E-05  5.00000000E-05  5.00000000E-05  5.00000000E-05  5.00000000E-05  5.00000000E-05  5.00000000E-05  5.00000000E-05  5.00000000E-05  5.00000000E-05  5.00000000E-05  5.00000000E-05  5.00000000E-05  5.00000000E-05
      5.00000000E-05  5.00000000E-05  5.00000000E-05  5.00000000E-05  5.00000000E-05  5.00000000E-05  5.00000000E-05  5.00000000E-05  5.00000000E-05  5.00000000E-05  5.00000000E-05  5.00000000E-05  5.00000000E-05  5.00000000E-05  5.00000000E-05  5.00000000E-05  5.00000000E-05  5.00000000E-05  5.00000000E-05  5.00000000E-05  5.00000000E-05  5.00000000E-05  5.00000000E-05  5.00000000E-05  5.00000000E-05
      5.00000000E-05  5.00000000E-05  5.00000000E-05  5.00000000E-05  5.00000000E-05  5.00000000E-05  5.00000000E-05  5.00000000E-05  5.00000000E-05  5.00000000E-05  5.00000000E-05  5.00000000E-05  5.00000000E-05  5.00000000E-05  5.00000000E-05  5.00000000E-05  5.00000000E-05  5.00000000E-05  5.00000000E-05  5.00000000E-05  5.00000000E-05  5.00000000E-05  5.00000000E-05  5.00000000E-05  5.00000000E-05
      5.00000000E-05  5.00000000E-05  5.00000000E-05  5.00000000E-05  5.00000000E-05  5.00000000E-05  5.00000000E-05  5.00000000E-05  5.00000000E-05  5.00000000E-05  5.00000000E-05  5.00000000E-05  5.00000000E-05  5.00000000E-05  5.00000000E-05  5.00000000E-05  5.00000000E-05  5.00000000E-05  5.00000000E-05  5.00000000E-05  5.00000000E-05  5.00000000E-05  5.00000000E-05  5.00000000E-05  5.00000000E-05
      5.00000000E-05  5.00000000E-05  5.00000000E-05  5.00000000E-05  5.00000000E-05  5.00000000E-05  5.00000000E-05  5.00000000E-05  5.00000000E-05  5.00000000E-05  5.00000000E-05  5.00000000E-05  5.00000000E-05  5.00000000E-05  5.00000000E-05  5.00000000E-05  5.00000000E-05  5.00000000E-05  5.00000000E-05  5.00000000E-05  5.00000000E-05  5.00000000E-05  5.00000000E-05  5.00000000E-05  5.00000000E-05
      5.00000000E-05  5.00000000E-05  5.00000000E-05  5.00000000E-05  5.00000000E-05  5.00000000E-05  5.00000000E-05  5.00000000E-05  5.00000000E-05  5.00000000E-05  5.00000000E-05  5.00000000E-05  5.00000000E-05  5.00000000E-05  5.00000000E-05  5.00000000E-05  5.00000000E-05  5.00000000E-05  5.00000000E-05  5.00000000E-05  5.00000000E-05  5.00000000E-05  5.00000000E-05  5.00000000E-05  5.00000000E-05
      5.00000000E-05  5.00000000E-05  5.00000000E-05  5.00000000E-05  5.00000000E-05  5.00000000E-05  5.00000000E-05  5.00000000E-05  5.00000000E-05  5.00000000E-05  5.00000000E-05  5.00000000E-05  5.00000000E-05  5.00000000E-05  5.00000000E-05  5.00000000E-05  5.00000000E-05  5.00000000E-05  5.00000000E-05  5.00000000E-05  5.00000000E-05  5.00000000E-05  5.00000000E-05  5.00000000E-05  5.00000000E-05
      5.00000000E-05  5.00000000E-05  5.00000000E-05  5.00000000E-05  5.00000000E-05  5.00000000E-05  5.00000000E-05  5.00000000E-05  5.00000000E-05  5.00000000E-05  5.00000000E-05  5.00000000E-05  5.00000000E-05  5.00000000E-05  5.00000000E-05  5.00000000E-05  5.00000000E-05  5.00000000E-05  5.00000000E-05  5.00000000E-05  5.00000000E-05  5.00000000E-05  5.00000000E-05  5.00000000E-05  5.00000000E-05
    CONSTANT  5.00000000E-05
    CONSTANT  5.00000000E-05
  sy  LAYERED
    INTERNAL  FACTOR  1.0
           0.25000000       0.25000000       0.25000000       0.25000000       0.25000000       0.25000000       0.25000000       0.25000000       0.25000000       0.25000000       0.25000000       0.25000000       0.25000000       0.25000000       0.25000000       0.25000000       0.25000000       0.25000000       0.25000000       0.25000000       0.25000000       0.25000000       0.25000000       0.25000000       0.25000000
           0.25000000       0.25000000       0.25000000       0.25000000       0.25000000       0.25000000       0.25000000       0.25000000       0.25000000       0.25000000       0.25000000       0.25000000       0.25000000       0.25000000       0.25000000       0.25000000       0.25000000       0.25000000       0.25000000       0.25000000       0.25000000       0.25000000       0.25000000       0.25000000       0.25000000
           0.25000000       0.25000000       0.25000000       0.25000000       0.25000000       0.25000000       0.25000000       0.25000000       0.25000000       0.25000000       0.25000000       0.25000000       0.25000000       0.25000000       0.25000000       0.25000000       0.25000000       0.25000000       0.25000000       0.25000000       0.25000000       0.25000000       0.25000000       0.25000000       0.25000000
           0.25000000       0.25000000       0.25000000       1.00000000       1.00000000       1.00000000       1.00000000       0.25000000       0.25000000       0.25000000       0.25000000       0.25000000       0.25000000       0.25000000       0.25000000       0.25000000       0.25000000       0.25000000       0.25000000       0.25000000       0.25000000       0.25000000       0.25000000       0.25000000       0.25000000
           0.25000000       0.25000000       1.00000000       1.00000000       1.00000000       1.00000000       1.00000000       0.25000000       0.25000000       0.25000000       0.25000000       0.25000000       0.25000000       0.25000000       0.25000000       0.25000000       0.25000000       0.25000000       0.25000000       0.25000000       0.25000000       0.25000000       0.25000000       0.25000000       0.25000000
           0.25000000       0.25000000       1.00000000       1.00000000       1.00000000       1.00000000       1.00000000       0.25000000       0.25000000       0.25000000       0.25000000       0.25000000       0.25000000       0.25000000       0.25000000       0.25000000       0.25000000       0.25000000       0.25000000       0.25000000       0.25000000       0.25000000       0.25000000       0.25000000       0.25000000
           0.25000000       0.25000000       1.00000000       1.00000000       1.00000000       1.00000000       1.00000000       0.25000000       0.25000000       0.25000000       0.25000000       0.25000000       0.25000000       0.25000000       0.25000000       0.25000000       0.25000000       0.25000000       0.25000000       0.25000000       0.25000000       0.25000000       0.25000000       0.25000000       0.25000000
           0.25000000       0.25000000       1.00000000       1.00000000       1.00000000       1.00000000       1.00000000       0.25000000       0.25000000       0.25000000       0.25000000       0.25000000       0.25000000       0.25000000       0.25000000       0.25000000       0.25000000       0.25000000       0.25000000       0.25000000       0.25000000       0.25000000       0.25000000       0.25000000       0.25000000
           0.25000000       0.25000000       1.00000000       1.00000000       1.00000000       1.00000000       1.00000000       0.25000000       0.25000000       0.25000000       0.25000000       0.25000000       0.25000000       0.25000000       0.25000000       0.25000000       0.25000000       0.25000000       0.25000000       0.25000000       0.25000000       0.25000000       0.25000000       0.25000000       0.25000000
           0.25000000       0.25000000       1.00000000       1.00000000       1.00000000       1.00000000       1.00000000       1.00000000       0.25000000       0.25000000       0.25000000       0.25000000       0.25000000       0.25000000       0.25000000       0.25000000       0.25000000       0.25000000       0.25000000       0.25000000       0.25000000       0.25000000       0.25000000       0.25000000       0.25000000
           0.25000000       0.25000000       0.25000000       1.00000000       1.00000000       1.00000000       1.00000000       1.00000000       0.25000000       0.25000000       0.25000000       0.25000000       0.25000000       0.25000000       0.25000000       0.25000000       0.25000000       0.25000000       0.25000000       0.25000000       0.25000000       0.25000000       0.25000000       0.25000000       0.25000000
           0.25000000       0.25000000       0.25000000       1.00000000       1.00000000       1.00000000       1.00000000       1.00000000       1.00000000       0.25000000       0.25000000       0.25000000       0.25000000       0.25000000       0.25000000       0.25000000       0.25000000       0.25000000       0.25000000       0.25000000       0.25000000       0.25000000       0.25000000       0.25000000       0.25000000
           0.25000000       0.25000000       0.25000000       0.25000000       1.00000000       1.00000000       1.00000000       1.00000000       1.00000000       0.25000000       0.25000000       0.25000000       0.25000000       0.25000000       0.25000000       0.25000000       0.25000000       0.25000000       0.25000000       0.25000000       0.25000000       0.25000000       0.25000000       0.25000000       0.25000000
           0.25000000       0.25000000       0.25000000       0.25000000       1.00000000       1.00000000       1.00000000       1.00000000       1.00000000       0.25000000       0.25000000       0.25000000       0.25000000       0.25000000       0.25000000       0.25000000       0.25000000       0.25000000       0.25000000       0.25000000       0.25000000       0.25000000       0.25000000       0.25000000       0.25000000
           0.25000000       0.25000000       0.25000000       0.25000000       1.00000000       1.00000000       1.00000000       1.00000000       1.00000000       0.25000000       0.25000000       0.25000000       0.25000000       0.25000000       0.25000000       0.25000000       0.25000000       0.25000000       0.25000000       0.25000000       0.25000000       0.25000000       0.25000000       0.25000000       0.25000000
           0.25000000       0.25000000       0.25000000       0.25000000       0.25000000       1.00000000       1.00000000       1.00000000       1.00000000       0.25000000       0.25000000       0.25000000       0.25000000       0.25000000       0.25000000       0.25000000       0.25000000       0.25000000       0.25000000       0.25000000       0.25000000       0.25000000       0.25000000       0.25000000       0.25000000
           0.25000000       0.25000000       0.25000000       0.25000000       0.25000000       0.25000000       0.25000000       0.25000000       0.25000000       0.25000000       0.25000000       0.25000000       0.25000000       0.25000000       0.25000000       0.25000000       0.25000000       0.25000000       0.25000000       0.25000000       0.25000000       0.25000000       0.25000000       0.25000000       0.25000000
           0.25000000       0.25000000       0.25000000       0.25000000       0.25000000       0.25000000       0.25000000       0.25000000       0.25000000       0.25000000       0.25000000       0.25000000       0.25000000       0.25000000       0.25000000       0.25000000       0.25000000       0.25000000       0.25000000       0.25000000       0.25000000       0.25000000       0.25000000       0.25000000       0.25000000
           0.25000000       0.25000000       0.25000000       0.25000000       0.25000000       0.25000000       0.25000000       0.25000000       0.25000000       0.25000000       0.25000000       0.25000000       0.25000000       0.25000000       0.25000000       0.25000000       0.25000000       0.25000000       0.25000000       0.25000000       0.25000000       0.25000000       0.25000000       0.25000000       0.25000000
           0.25000000       0.25000000       0.25000000       0.25000000       0.25000000       0.25000000       0.25000000       0.25000000       0.25000000       0.25000000       0.25000000       0.25000000       0.25000000       0.25000000       0.25000000       0.25000000       0.25000000       0.25000000       0.25000000       0.25000000       0.25000000       0.25000000       0.25000000       0.25000000       0.25000000
           0.25000000       0.25000000       0.25000000       0.25000000       0.25000000       0.25000000       0.25000000       0.25000000       0.25000000       0.25000000       0.25000000       0.25000000       0.25000000       0.25000000       0.25000000       0.25000000       0.25000000       0.25000000       0.25000000       0.25000000       0.25000000       0.25000000       0.25000000       0.25000000       0.25000000
           0.25000000       0.25000000       0.25000000       0.25000000       0.25000000       0.25000000       0.25000000       0.25000000       0.25000000       0.25000000       0.25000000       0.25000000       0.25000000       0.25000000       0.25000000       0.25000000       0.25000000       0.25000000       0.25000000       0.25000000       0.25000000       0.25000000       0.25000000       0.25000000       0.25000000
           0.25000000       0.25000000       0.25000000       0.25000000       0.25000000       0.25000000       0.25000000       0.25000000       0.25000000       0.25000000       0.25000000       0.25000000       0.25000000       0.25000000       0.25000000       0.25000000       0.25000000       0.25000000       0.25000000       0.25000000       0.25000000       0.25000000       0.25000000       0.25000000       0.25000000
           0.25000000       0.25000000       0.25000000       0.25000000       0.25000000       0.25000000       0.25000000       0.25000000       0.25000000       0.25000000       0.25000000       0.25000000       0.25000000       0.25000000       0.25000000       0.25000000       0.25000000       0.25000000       0.25000000       0.25000000       0.25000000       0.25000000       0.25000000       0.25000000       0.25000000
           0.25000000       0.25000000       0.25000000       0.25000000       0.25000000       0.25000000       0.25000000       0.25000000       0.25000000       0.25000000       0.25000000       0.25000000       0.25000000       0.25000000       0.25000000       0.25000000       0.25000000       0.25000000       0.25000000       0.25000000       0.25000000       0.25000000       0.25000000       0.25000000       0.25000000
           0.25000000       0.25000000       0.25000000       0.25000000       0.25000000       0.25000000       0.25000000       0.25000000       0.25000000       0.25000000       0.25000000       0.25000000       0.25000000       0.25000000       0.25000000       0.25000000       0.25000000       0.25000000       0.25000000       0.25000000       0.25000000       0.25000000       0.25000000       0.25000000       0.25000000
           0.25000000       0.25000000       0.25000000       0.25000000       0.25000000       0.25000000       0.25000000       0.25000000       0.25000000       0.25000000       0.25000000       0.25000000       0.25000000       0.25000000       0.25000000       0.25000000       0.25000000       0.25000000       0.25000000       0.25000000       0.25000000       0.25000000       0.25000000       0.25000000       0.25000000
           0.25000000       0.25000000       0.25000000       0.25000000       0.25000000       0.25000000       0.25000000       0.25000000       0.25000000       0.25000000       0.25000000       0.25000000       0.25000000       0.25000000       0.25000000       0.25000000       0.25000000       0.25000000       0.25000000       0.25000000       0.25000000       0.25000000       0.25000000       0.25000000       0.25000000
           0.25000000       0.25000000       0.25000000       0.25000000       0.25000000       0.25000000       0.25000000       0.25000000       0.25000000       0.25000000       0.25000000       0.25000000       0.25000000       0.25000000       0.25000000       0.25000000       0.25000000       0.25000000       0.25000000       0.25000000       0.25000000       0.25000000       0.25000000       0.25000000       0.25000000
           0.25000000       0.25000000       0.25000000       0.25000000       0.25000000       0.25000000       0.25000000       0.25000000       0.25000000       0.25000000       0.25000000       0.25000000       0.25000000       0.25000000       0.25000000       0.25000000       0.25000000       0.25000000       0.25000000       0.25000000       0.25000000       0.25000000       0.25000000       0.25000000       0.25000000