BEGIN options
  TIME_UNITS  days
  START_DATE_TIME  1962-01-01t00:00:00
END options

BEGIN dimensions
  NPER  241
END dimensions

BEGIN perioddata
   16071.00000000  1       1.00000000
      31.00000000  1       1.00000000
      28.00000000  1       1.00000000
      31.00000000  1       1.00000000
      30.00000000  1       1.00000000
      31.00000000  1       1.00000000
      30.00000000  1       1.00000000
      31.00000000  1       1.00000000
      31.00000000  1       1.00000000
      30.00000000  1       1.00000000
      31.00000000  1       1.00000000
      30.00000000  1       1.00000000
      31.00000000  1       1.00000000
      31.00000000  1       1.00000000
      28.00000000  1       1.00000000
      31.00000000  1       1.00000000
      30.00000000  1       1.00000000
      31.00000000  1       1.00000000
      30.00000000  1       1.00000000
      31.00000000  1       1.00000000
      31.00000000  1       1.00000000
      30.00000000  1       1.00000000
      31.00000000  1       1.00000000
      30.00000000  1       1.00000000
      31.00000000  1       1.00000000
      31.00000000  1       1.00000000
      29.00000000  1       1.00000000
      31.00000000  1       1.00000000
      30.00000000  1       1.00000000
      31.00000000  1       1.00000000
      30.00000000  1       1.00000000
      31.00000000  1       1.00000000
      31.00000000  1       1.00000000
      30.00000000  1       1.00000000
      31.00000000  1       1.00000000
      30.00000000  1       1.00000000
      31.00000000  1       1.00000000
      31.00000000  1       1.00000000
      28.00000000  1       1.00000000
      31.00000000  1       1.00000000
      30.00000000  1       1.00000000
      31.00000000  1       1.00000000
      30.00000000  1       1.00000000
      31.00000000  1       1.00000000
      31.00000000  1       1.00000000
      30.00000000  1       1.00000000
      31.00000000  1       1.00000000
      30.00000000  1       1.00000000
      31.00000000  1       1.00000000
      31.00000000  1       1.00000000
      28.00000000  1       1.00000000
      31.00000000  1       1.00000000
      30.00000000  1       1.00000000
      31.00000000  1       1.00000000
      30.00000000  1       1.00000000
      31.00000000  1       1.00000000
      31.00000000  1       1.00000000
      30.00000000  1       1.00000000
      31.00000000  1       1.00000000
      30.00000000  1       1.00000000
      31.00000000  1       1.00000000
      31.00000000  1       1.00000000
      28.00000000  1       1.00000000
      31.00000000  1       1.00000000
      30.00000000  1       1.00000000
      31.00000000  1       1.00000000
      30.00000000  1       1.00000000
      31.00000000  1       1.00000000
      31.00000000  1       1.00000000
      30.00000000  1       1.00000000
      31.00000000  1       1.00000000
      30.00000000  1       1.00000000
      31.00000000  1       1.00000000
      31.00000000  1       1.00000000
      29.00000000  1       1.00000000
      31.00000000  1       1.00000000
      30.00000000  1       1.00000000
      31.00000000  1       1.00000000
      30.00000000  1       1.00000000
      31.00000000  1       1.00000000
      31.00000000  1       1.00000000
      30.00000000  1       1.00000000
      31.00000000  1       1.00000000
      30.00000000  1       1.00000000
      31.00000000  1       1.00000000
      31.00000000  1       1.00000000
      28.00000000  1       1.00000000
      31.00000000  1       1.00000000
      30.00000000  1       1.00000000
      31.00000000  1       1.00000000
      30.00000000  1       1.00000000
      31.00000000  1       1.00000000
      31.00000000  1       1.00000000
      30.00000000  1       1.00000000
      31.00000000  1       1.00000000
      30.00000000  1       1.00000000
      31.00000000  1       1.00000000
      31.00000000  1       1.00000000
      28.00000000  1       1.00000000
      31.00000000  1       1.00000000
      30.00000000  1       1.00000000
      31.00000000  1       1.00000000
      30.00000000  1       1.00000000
      31.00000000  1       1.00000000
      31.00000000  1       1.00000000
      30.00000000  1       1.00000000
      31.00000000  1       1.00000000
      30.00000000  1       1.00000000
      31.00000000  1       1.00000000
      31.00000000  1       1.00000000
      28.00000000  1       1.00000000
      31.00000000  1       1.00000000
      30.00000000  1       1.00000000
      31.00000000  1       1.00000000
      30.00000000  1       1.00000000
      31.00000000  1       1.00000000
      31.00000000  1       1.00000000
      30.00000000  1       1.00000000
      31.00000000  1       1.00000000
      30.00000000  1       1.00000000
      31.00000000  1       1.00000000
      31.00000000  1       1.00000000
      29.00000000  1       1.00000000
      31.00000000  1       1.00000000
      30.00000000  1       1.00000000
      31.00000000  1       1.00000000
      30.00000000  1       1.00000000
      31.00000000  1       1.00000000
      31.00000000  1       1.00000000
      30.00000000  1       1.00000000
      31.00000000  1       1.00000000
      30.00000000  1       1.00000000
      31.00000000  1       1.00000000
      31.00000000  1       1.00000000
      28.00000000  1       1.00000000
      31.00000000  1       1.00000000
      30.00000000  1       1.00000000
      31.00000000  1       1.00000000
      30.00000000  1       1.00000000
      31.00000000  1       1.00000000
      31.00000000  1       1.00000000
      30.00000000  1       1.00000000
      31.00000000  1       1.00000000
      30.00000000  1       1.00000000
      31.00000000  1       1.00000000
      31.00000000  1       1.00000000
      28.00000000  1       1.00000000
      31.00000000  1       1.00000000
      30.00000000  1       1.00000000
      31.00000000  1       1.00000000
      30.00000000  1       1.00000000
      31.00000000  1       1.00000000
      31.00000000  1       1.00000000
      30.00000000  1       1.00000000
      31.00000000  1       1.00000000
      30.00000000  1       1.00000000
      31.00000000  1       1.00000000
      31.00000000  1       1.00000000
      28.00000000  1       1.00000000
      31.00000000  1       1.00000000
      30.00000000  1       1.00000000
      31.00000000  1       1.00000000
      30.00000000  1       1.00000000
      31.00000000  1       1.00000000
      31.00000000  1       1.00000000
      30.00000000  1       1.00000000
      31.00000000  1       1.00000000
      30.00000000  1       1.00000000
      31.00000000  1       1.00000000
      31.00000000  1       1.00000000
      29.00000000  1       1.00000000
      31.00000000  1       1.00000000
      30.00000000  1       1.00000000
      31.00000000  1       1.00000000
      30.00000000  1       1.00000000
      31.00000000  1       1.00000000
      31.00000000  1       1.00000000
      30.00000000  1       1.00000000
      31.00000000  1       1.00000000
      30.00000000  1       1.00000000
      31.00000000  1       1.00000000
      31.00000000  1       1.00000000
      28.00000000  1       1.00000000
      31.00000000  1       1.00000000
      30.00000000  1       1.00000000
      31.00000000  1       1.00000000
      30.00000000  1       1.00000000
      31.00000000  1       1.00000000
      31.00000000  1       1.00000000
      30.00000000  1       1.00000000
      31.00000000  1       1.00000000
      30.00000000  1       1.00000000
      31.00000000  1       1.00000000
      31.00000000  1       1.00000000
      28.00000000  1       1.00000000
      31.00000000  1       1.00000000
      30.00000000  1       1.00000000
      31.00000000  1       1.00000000
      30.00000000  1       1.00000000
      31.00000000  1       1.00000000
      31.00000000  1       1.00000000
      30.00000000  1       1.00000000
      31.00000000  1       1.00000000
      30.00000000  1       1.00000000
      31.00000000  1       1.00000000
      31.00000000  1       1.00000000
      28.00000000  1       1.00000000
      31.00000000  1       1.00000000
      30.00000000  1       1.00000000
      31.00000000  1       1.00000000
      30.00000000  1       1.00000000
      31.00000000  1       1.00000000
      31.00000000  1       1.00000000
      30.00000000  1       1.00000000
      31.00000000  1       1.00000000
      30.00000000  1       1.00000000
      31.00000000  1       1.00000000
      31.00000000  1       1.00000000
      29.00000000  1       1.00000000
      31.00000000  1       1.00000000
      30.00000000  1       1.00000000
      31.00000000  1       1.00000000
      30.00000000  1       1.00000000
      31.00000000  1       1.00000000
      31.00000000  1       1.00000000
      30.00000000  1       1.00000000
      31.00000000  1       1.00000000
      30.00000000  1       1.00000000
      31.00000000  1       1.00000000
      31.00000000  1       1.00000000
      28.00000000  1       1.00000000
      31.00000000  1       1.00000000
      30.00000000  1       1.00000000
      31.00000000  1       1.00000000
      30.00000000  1       1.00000000
      31.00000000  1       1.00000000
      31.00000000  1       1.00000000
      30.00000000  1       1.00000000
      31.00000000  1       1.00000000
      30.00000000  1       1.00000000
      31.00000000  1       1.00000000
END perioddata

